*************************************************
   ChampSim Multicore Out-of-Order Simulator
   Last compiled: Apr  3 2025 20:54:34
*************************************************
parsing config file: /home/zir/Pythia/config/nopref.ini

trace_0 /home/zir/ChampSim/ML-DPC/ChampSimTraces/spec17/654.roms-s4.trace.xz
adding L2C_PREFETCHER: NONE
Initialize SHIP state
warmup_instructions 10000000
simulation_instructions 50000000
champsim_seed 167
measure_ipc 0
measure_ipc_epoch 1000
measure_dram_bw 1
measure_dram_bw_epoch 256
measure_cache_acc 1
measure_cache_acc_epoch 1024
l1d_perfect 0
l2c_perfect 0
llc_perfect 0
l1d_semi_perfect 0
l2c_semi_perfect 0
llc_semi_perfect 0
semi_perfect_cache_page_buffer_size 64

num_cpus 1
cpu_freq 4000
dram_io_freq 2400
page_size 4096
block_size 64
max_read_per_cycle 8
max_fill_per_cycle 1
dram_channels 1
log2_dram_channels 0
dram_ranks 1
dram_banks 8
dram_rows 65536
dram_columns 128
dram_row_size 8
dram_size 4096
dram_pages 1048576

fetch_width 6
decode_width 6
exec_width 4
lq_width 2
sq_width 2
retire_width 4
scheduler_size 128
branch_mispredict_penalty 20
rob_size 256
lq_size 72
sq_size 56
num_instr_destinations_sparc 4
num_instr_destinations 2
num_instr_sources 4

itlb_set 16
itlb_way 8
itlb_rq_size 16
itlb_wq_size 16
itlb_pq_size 0
itlb_mshr_size 8
itlb_latency 1

dtlb_set 16
dtlb_way 4
dtlb_rq_size 16
dtlb_wq_size 16
dtlb_pq_size 0
dtlb_mshr_size 8
dtlb_latency 1

stlb_set 128
stlb_way 12
stlb_rq_size 32
stlb_wq_size 32
stlb_pq_size 0
stlb_mshr_size 16
stlb_latency 8

l1i_size 32
l1i_set 64
l1i_way 8
l1i_rq_size 64
l1i_wq_size 64
l1i_pq_size 8
l1i_mshr_size 8
l1i_latency 1

l1d_size 32
l1d_set 64
l1d_way 8
l1d_rq_size 64
l1d_wq_size 64
l1d_pq_size 8
l1d_mshr_size 16
l1d_latency 4

l2c_size 256
l2c_set 512
l2c_way 8
l2c_rq_size 32
l2c_wq_size 32
l2c_pq_size 32
l2c_mshr_size 32
l2c_latency 10

llc_size 2048
llc_set 2048
llc_way 16
llc_rq_size 32
llc_wq_size 32
llc_pq_size 32
llc_mshr_size 64
llc_latency 20

dram_channel_width 8
dram_wq_size 64
dram_rq_size 64
tRP 15
tRCD 15
tCAS 12.5
dram_dbus_turn_around_time 30
dram_write_high_wm 56
dram_write_low_wm 48
min_dram_writes_per_switch 16
dram_mtps 2400
dram_dbus_return_time 13


Heartbeat CPU  0 instructions:    1000001 cycles:     416460 heartbeat IPC: 2.40119 cumulative IPC: 2.40119 (Simulation time: 0 hr 0 min 2 sec) 
Heartbeat CPU  0 instructions:    2000002 cycles:     832149 heartbeat IPC: 2.40565 cumulative IPC: 2.40342 (Simulation time: 0 hr 0 min 3 sec) 
Heartbeat CPU  0 instructions:    3000002 cycles:    1247701 heartbeat IPC: 2.40644 cumulative IPC: 2.40442 (Simulation time: 0 hr 0 min 5 sec) 
Heartbeat CPU  0 instructions:    4000000 cycles:    1663159 heartbeat IPC: 2.40698 cumulative IPC: 2.40506 (Simulation time: 0 hr 0 min 6 sec) 
Heartbeat CPU  0 instructions:    5000000 cycles:    2078834 heartbeat IPC: 2.40573 cumulative IPC: 2.40519 (Simulation time: 0 hr 0 min 8 sec) 
Heartbeat CPU  0 instructions:    6000001 cycles:    2494573 heartbeat IPC: 2.40536 cumulative IPC: 2.40522 (Simulation time: 0 hr 0 min 9 sec) 
Heartbeat CPU  0 instructions:    7000003 cycles:    2910140 heartbeat IPC: 2.40636 cumulative IPC: 2.40538 (Simulation time: 0 hr 0 min 11 sec) 
Heartbeat CPU  0 instructions:    8000000 cycles:    3325963 heartbeat IPC: 2.40486 cumulative IPC: 2.40532 (Simulation time: 0 hr 0 min 12 sec) 
Heartbeat CPU  0 instructions:    9000003 cycles:    3741456 heartbeat IPC: 2.40679 cumulative IPC: 2.40548 (Simulation time: 0 hr 0 min 14 sec) 
Heartbeat CPU  0 instructions:   10000000 cycles:    4157238 heartbeat IPC: 2.40510 cumulative IPC: 2.40544 (Simulation time: 0 hr 0 min 15 sec) 

Warmup complete CPU  0 instructions:   10000004 cycles:    4157239 (Simulation time: 0 hr 0 min 15 sec) 

Heartbeat CPU  0 instructions:   11000003 cycles:    5535165 heartbeat IPC: 0.72573 cumulative IPC: 0.72573 (Simulation time: 0 hr 0 min 17 sec) 
Heartbeat CPU  0 instructions:   12000000 cycles:    6909064 heartbeat IPC: 0.72785 cumulative IPC: 0.72679 (Simulation time: 0 hr 0 min 19 sec) 
Heartbeat CPU  0 instructions:   13000000 cycles:    8287696 heartbeat IPC: 0.72536 cumulative IPC: 0.72631 (Simulation time: 0 hr 0 min 22 sec) 
Heartbeat CPU  0 instructions:   14000001 cycles:    9660284 heartbeat IPC: 0.72855 cumulative IPC: 0.72687 (Simulation time: 0 hr 0 min 24 sec) 
Heartbeat CPU  0 instructions:   15000000 cycles:   11038113 heartbeat IPC: 0.72578 cumulative IPC: 0.72665 (Simulation time: 0 hr 0 min 26 sec) 
Heartbeat CPU  0 instructions:   16000000 cycles:   12409121 heartbeat IPC: 0.72939 cumulative IPC: 0.72711 (Simulation time: 0 hr 0 min 28 sec) 
Heartbeat CPU  0 instructions:   17000000 cycles:   13782802 heartbeat IPC: 0.72797 cumulative IPC: 0.72723 (Simulation time: 0 hr 0 min 30 sec) 
Heartbeat CPU  0 instructions:   18000000 cycles:   15155836 heartbeat IPC: 0.72831 cumulative IPC: 0.72737 (Simulation time: 0 hr 0 min 32 sec) 
Heartbeat CPU  0 instructions:   19000001 cycles:   16533950 heartbeat IPC: 0.72563 cumulative IPC: 0.72717 (Simulation time: 0 hr 0 min 34 sec) 
Heartbeat CPU  0 instructions:   20000000 cycles:   17908807 heartbeat IPC: 0.72735 cumulative IPC: 0.72719 (Simulation time: 0 hr 0 min 36 sec) 
Heartbeat CPU  0 instructions:   21000000 cycles:   19280279 heartbeat IPC: 0.72914 cumulative IPC: 0.72737 (Simulation time: 0 hr 0 min 39 sec) 
Heartbeat CPU  0 instructions:   22000000 cycles:   20668155 heartbeat IPC: 0.72053 cumulative IPC: 0.72679 (Simulation time: 0 hr 0 min 41 sec) 
Heartbeat CPU  0 instructions:   23000001 cycles:   22049021 heartbeat IPC: 0.72418 cumulative IPC: 0.72659 (Simulation time: 0 hr 0 min 43 sec) 
Heartbeat CPU  0 instructions:   24000000 cycles:   23441467 heartbeat IPC: 0.71816 cumulative IPC: 0.72598 (Simulation time: 0 hr 0 min 45 sec) 
Heartbeat CPU  0 instructions:   25000002 cycles:   24824338 heartbeat IPC: 0.72313 cumulative IPC: 0.72579 (Simulation time: 0 hr 0 min 47 sec) 
Heartbeat CPU  0 instructions:   26000003 cycles:   26197474 heartbeat IPC: 0.72826 cumulative IPC: 0.72595 (Simulation time: 0 hr 0 min 49 sec) 
Heartbeat CPU  0 instructions:   27000000 cycles:   27578430 heartbeat IPC: 0.72413 cumulative IPC: 0.72584 (Simulation time: 0 hr 0 min 51 sec) 
Heartbeat CPU  0 instructions:   28000000 cycles:   28960694 heartbeat IPC: 0.72345 cumulative IPC: 0.72571 (Simulation time: 0 hr 0 min 54 sec) 
Heartbeat CPU  0 instructions:   29000002 cycles:   30342945 heartbeat IPC: 0.72346 cumulative IPC: 0.72559 (Simulation time: 0 hr 0 min 56 sec) 
Heartbeat CPU  0 instructions:   30000002 cycles:   31717873 heartbeat IPC: 0.72731 cumulative IPC: 0.72567 (Simulation time: 0 hr 0 min 58 sec) 
Heartbeat CPU  0 instructions:   31000003 cycles:   33096281 heartbeat IPC: 0.72548 cumulative IPC: 0.72566 (Simulation time: 0 hr 1 min 0 sec) 
Heartbeat CPU  0 instructions:   32000000 cycles:   34470373 heartbeat IPC: 0.72775 cumulative IPC: 0.72576 (Simulation time: 0 hr 1 min 2 sec) 
Heartbeat CPU  0 instructions:   33000001 cycles:   35850053 heartbeat IPC: 0.72481 cumulative IPC: 0.72572 (Simulation time: 0 hr 1 min 4 sec) 
Heartbeat CPU  0 instructions:   34000001 cycles:   37224780 heartbeat IPC: 0.72742 cumulative IPC: 0.72579 (Simulation time: 0 hr 1 min 6 sec) 
Heartbeat CPU  0 instructions:   35000003 cycles:   38603229 heartbeat IPC: 0.72545 cumulative IPC: 0.72577 (Simulation time: 0 hr 1 min 9 sec) 
Heartbeat CPU  0 instructions:   36000000 cycles:   39994789 heartbeat IPC: 0.71862 cumulative IPC: 0.72550 (Simulation time: 0 hr 1 min 11 sec) 
Heartbeat CPU  0 instructions:   37000000 cycles:   41380098 heartbeat IPC: 0.72186 cumulative IPC: 0.72536 (Simulation time: 0 hr 1 min 13 sec) 
Heartbeat CPU  0 instructions:   38000002 cycles:   42766946 heartbeat IPC: 0.72106 cumulative IPC: 0.72521 (Simulation time: 0 hr 1 min 15 sec) 
Heartbeat CPU  0 instructions:   39000001 cycles:   44151606 heartbeat IPC: 0.72220 cumulative IPC: 0.72510 (Simulation time: 0 hr 1 min 17 sec) 
Heartbeat CPU  0 instructions:   40000000 cycles:   45542395 heartbeat IPC: 0.71902 cumulative IPC: 0.72490 (Simulation time: 0 hr 1 min 19 sec) 
Heartbeat CPU  0 instructions:   41000000 cycles:   46930522 heartbeat IPC: 0.72040 cumulative IPC: 0.72475 (Simulation time: 0 hr 1 min 21 sec) 
Heartbeat CPU  0 instructions:   42000002 cycles:   61697986 heartbeat IPC: 0.06772 cumulative IPC: 0.55613 (Simulation time: 0 hr 1 min 29 sec) 
Heartbeat CPU  0 instructions:   43000003 cycles:   66302711 heartbeat IPC: 0.21717 cumulative IPC: 0.53101 (Simulation time: 0 hr 1 min 32 sec) 
Heartbeat CPU  0 instructions:   44000000 cycles:   70931002 heartbeat IPC: 0.21606 cumulative IPC: 0.50918 (Simulation time: 0 hr 1 min 35 sec) 
Heartbeat CPU  0 instructions:   45000000 cycles:   72548356 heartbeat IPC: 0.61829 cumulative IPC: 0.51176 (Simulation time: 0 hr 1 min 37 sec) 
Heartbeat CPU  0 instructions:   46000000 cycles:   73985472 heartbeat IPC: 0.69584 cumulative IPC: 0.51555 (Simulation time: 0 hr 1 min 39 sec) 
Heartbeat CPU  0 instructions:   47000000 cycles:   75415840 heartbeat IPC: 0.69912 cumulative IPC: 0.51924 (Simulation time: 0 hr 1 min 41 sec) 
Heartbeat CPU  0 instructions:   48000000 cycles:   76840430 heartbeat IPC: 0.70196 cumulative IPC: 0.52282 (Simulation time: 0 hr 1 min 43 sec) 
Heartbeat CPU  0 instructions:   49000000 cycles:   78271375 heartbeat IPC: 0.69884 cumulative IPC: 0.52622 (Simulation time: 0 hr 1 min 46 sec) 
Heartbeat CPU  0 instructions:   50000000 cycles:   79710035 heartbeat IPC: 0.69509 cumulative IPC: 0.52943 (Simulation time: 0 hr 1 min 48 sec) 
Heartbeat CPU  0 instructions:   51000001 cycles:   81159171 heartbeat IPC: 0.69007 cumulative IPC: 0.53245 (Simulation time: 0 hr 1 min 50 sec) 
Heartbeat CPU  0 instructions:   52000000 cycles:   82593441 heartbeat IPC: 0.69722 cumulative IPC: 0.53547 (Simulation time: 0 hr 1 min 52 sec) 
Heartbeat CPU  0 instructions:   53000001 cycles:   84020860 heartbeat IPC: 0.70057 cumulative IPC: 0.53842 (Simulation time: 0 hr 1 min 54 sec) 
Heartbeat CPU  0 instructions:   54000003 cycles:   85432271 heartbeat IPC: 0.70851 cumulative IPC: 0.54137 (Simulation time: 0 hr 1 min 56 sec) 
Heartbeat CPU  0 instructions:   55000000 cycles:   86871656 heartbeat IPC: 0.69474 cumulative IPC: 0.54404 (Simulation time: 0 hr 1 min 59 sec) 
Heartbeat CPU  0 instructions:   56000000 cycles:   88294426 heartbeat IPC: 0.70285 cumulative IPC: 0.54673 (Simulation time: 0 hr 2 min 1 sec) 
Heartbeat CPU  0 instructions:   57000002 cycles:   89709696 heartbeat IPC: 0.70658 cumulative IPC: 0.54937 (Simulation time: 0 hr 2 min 3 sec) 
Heartbeat CPU  0 instructions:   58000001 cycles:   91104140 heartbeat IPC: 0.71713 cumulative IPC: 0.55206 (Simulation time: 0 hr 2 min 5 sec) 
Heartbeat CPU  0 instructions:   59000002 cycles:   92503616 heartbeat IPC: 0.71455 cumulative IPC: 0.55464 (Simulation time: 0 hr 2 min 7 sec) 
Heartbeat CPU  0 instructions:   60000000 cycles:   93894639 heartbeat IPC: 0.71889 cumulative IPC: 0.55718 (Simulation time: 0 hr 2 min 9 sec) 
Finished CPU 0 instructions: 50000000 cycles: 89737410 cumulative IPC: 0.55718 (Simulation time: 0 hr 2 min 9 sec) 

ChampSim completed all CPUs

[ROI Statistics]
Core_0_instructions 50000000
Core_0_cycles 89737410
Core_0_IPC 0.55718

Core_0_branch_prediction_accuracy 99.95458
Core_0_branch_MPKI 0.03402
Core_0_average_ROB_occupancy_at_mispredict 190.37155

Core_0_L1D_total_access 12661766
Core_0_L1D_total_hit 12440264
Core_0_L1D_total_miss 221502
Core_0_L1D_loads 7757064
Core_0_L1D_load_hit 7624078
Core_0_L1D_load_miss 132986
Core_0_L1D_RFOs 4904702
Core_0_L1D_RFO_hit 4816186
Core_0_L1D_RFO_miss 88516
Core_0_L1D_prefetches 0
Core_0_L1D_prefetch_hit 0
Core_0_L1D_prefetch_miss 0
Core_0_L1D_writebacks 0
Core_0_L1D_writeback_hit 0
Core_0_L1D_writeback_miss 0
Core_0_L1D_prefetch_requested 0
Core_0_L1D_prefetch_dropped 0
Core_0_L1D_prefetch_issued 0
Core_0_L1D_prefetch_filled 0
Core_0_L1D_prefetch_useful 0
Core_0_L1D_prefetch_useless 0
Core_0_L1D_prefetch_late 0
Core_0_L1D_average_miss_latency 235.77813

Core_0_L1D_rq_access 10185966
Core_0_L1D_rq_forward 0
Core_0_L1D_rq_merged 2289298
Core_0_L1D_rq_to_cache 7896668
Core_0_L1D_rq_full 0

Core_0_L1D_wq_access 5563751
Core_0_L1D_wq_forward 0
Core_0_L1D_wq_merged 343171
Core_0_L1D_wq_to_cache 5220580
Core_0_L1D_wq_full 0

Core_0_L1D_pq_access 0
Core_0_L1D_pq_forward 0
Core_0_L1D_pq_merged 0
Core_0_L1D_pq_to_cache 0
Core_0_L1D_pq_full 0

Core_0_L1D_acc_epochs 91254
Core_0_L1D_acc_level_0 91254
Core_0_L1D_acc_level_1 0
Core_0_L1D_acc_level_2 0
Core_0_L1D_acc_level_3 0
Core_0_L1D_acc_level_4 0
Core_0_L1D_acc_level_5 0
Core_0_L1D_acc_level_6 0
Core_0_L1D_acc_level_7 0
Core_0_L1D_acc_level_8 0
Core_0_L1D_acc_level_9 0

Core_0_L1I_total_access 19881396
Core_0_L1I_total_hit 19881219
Core_0_L1I_total_miss 177
Core_0_L1I_loads 19881396
Core_0_L1I_load_hit 19881219
Core_0_L1I_load_miss 177
Core_0_L1I_RFOs 0
Core_0_L1I_RFO_hit 0
Core_0_L1I_RFO_miss 0
Core_0_L1I_prefetches 0
Core_0_L1I_prefetch_hit 0
Core_0_L1I_prefetch_miss 0
Core_0_L1I_writebacks 0
Core_0_L1I_writeback_hit 0
Core_0_L1I_writeback_miss 0
Core_0_L1I_prefetch_requested 0
Core_0_L1I_prefetch_dropped 0
Core_0_L1I_prefetch_issued 0
Core_0_L1I_prefetch_filled 0
Core_0_L1I_prefetch_useful 0
Core_0_L1I_prefetch_useless 0
Core_0_L1I_prefetch_late 0
Core_0_L1I_average_miss_latency 213.24294

Core_0_L1I_rq_access 50000004
Core_0_L1I_rq_forward 0
Core_0_L1I_rq_merged 30118538
Core_0_L1I_rq_to_cache 19881466
Core_0_L1I_rq_full 0

Core_0_L1I_wq_access 0
Core_0_L1I_wq_forward 0
Core_0_L1I_wq_merged 0
Core_0_L1I_wq_to_cache 0
Core_0_L1I_wq_full 0

Core_0_L1I_pq_access 0
Core_0_L1I_pq_forward 0
Core_0_L1I_pq_merged 0
Core_0_L1I_pq_to_cache 0
Core_0_L1I_pq_full 0

Core_0_L1I_acc_epochs 91254
Core_0_L1I_acc_level_0 91254
Core_0_L1I_acc_level_1 0
Core_0_L1I_acc_level_2 0
Core_0_L1I_acc_level_3 0
Core_0_L1I_acc_level_4 0
Core_0_L1I_acc_level_5 0
Core_0_L1I_acc_level_6 0
Core_0_L1I_acc_level_7 0
Core_0_L1I_acc_level_8 0
Core_0_L1I_acc_level_9 0

Core_0_L2C_total_access 310203
Core_0_L2C_total_hit 88324
Core_0_L2C_total_miss 221879
Core_0_L2C_loads 133163
Core_0_L2C_load_hit 1
Core_0_L2C_load_miss 133162
Core_0_L2C_RFOs 88516
Core_0_L2C_RFO_hit 10
Core_0_L2C_RFO_miss 88506
Core_0_L2C_prefetches 0
Core_0_L2C_prefetch_hit 0
Core_0_L2C_prefetch_miss 0
Core_0_L2C_writebacks 88524
Core_0_L2C_writeback_hit 88313
Core_0_L2C_writeback_miss 211
Core_0_L2C_prefetch_requested 0
Core_0_L2C_prefetch_dropped 0
Core_0_L2C_prefetch_issued 0
Core_0_L2C_prefetch_filled 0
Core_0_L2C_prefetch_useful 0
Core_0_L2C_prefetch_useless 0
Core_0_L2C_prefetch_late 0
Core_0_L2C_average_miss_latency 221.38779

Core_0_L2C_rq_access 221679
Core_0_L2C_rq_forward 0
Core_0_L2C_rq_merged 0
Core_0_L2C_rq_to_cache 221679
Core_0_L2C_rq_full 0

Core_0_L2C_wq_access 88524
Core_0_L2C_wq_forward 0
Core_0_L2C_wq_merged 0
Core_0_L2C_wq_to_cache 88524
Core_0_L2C_wq_full 0

Core_0_L2C_pq_access 0
Core_0_L2C_pq_forward 0
Core_0_L2C_pq_merged 0
Core_0_L2C_pq_to_cache 0
Core_0_L2C_pq_full 0

Core_0_L2C_acc_epochs 91254
Core_0_L2C_acc_level_0 91254
Core_0_L2C_acc_level_1 0
Core_0_L2C_acc_level_2 0
Core_0_L2C_acc_level_3 0
Core_0_L2C_acc_level_4 0
Core_0_L2C_acc_level_5 0
Core_0_L2C_acc_level_6 0
Core_0_L2C_acc_level_7 0
Core_0_L2C_acc_level_8 0
Core_0_L2C_acc_level_9 0

Core_0_LLC_total_access 310422
Core_0_LLC_total_hit 33208
Core_0_LLC_total_miss 277214
Core_0_LLC_loads 133162
Core_0_LLC_load_hit 1335
Core_0_LLC_load_miss 131827
Core_0_LLC_RFOs 88506
Core_0_LLC_RFO_hit 1
Core_0_LLC_RFO_miss 88505
Core_0_LLC_prefetches 0
Core_0_LLC_prefetch_hit 0
Core_0_LLC_prefetch_miss 0
Core_0_LLC_writebacks 88754
Core_0_LLC_writeback_hit 31872
Core_0_LLC_writeback_miss 56882
Core_0_LLC_prefetch_requested 0
Core_0_LLC_prefetch_dropped 0
Core_0_LLC_prefetch_issued 0
Core_0_LLC_prefetch_filled 0
Core_0_LLC_prefetch_useful 0
Core_0_LLC_prefetch_useless 0
Core_0_LLC_prefetch_late 0
Core_0_LLC_average_miss_latency 152.96599

Core_0_LLC_rq_access 221668
Core_0_LLC_rq_forward 0
Core_0_LLC_rq_merged 0
Core_0_LLC_rq_to_cache 221668
Core_0_LLC_rq_full 0

Core_0_LLC_wq_access 88754
Core_0_LLC_wq_forward 0
Core_0_LLC_wq_merged 0
Core_0_LLC_wq_to_cache 88754
Core_0_LLC_wq_full 0

Core_0_LLC_pq_access 0
Core_0_LLC_pq_forward 0
Core_0_LLC_pq_merged 0
Core_0_LLC_pq_to_cache 0
Core_0_LLC_pq_full 0

Core_0_LLC_acc_epochs 91694
Core_0_LLC_acc_level_0 91694
Core_0_LLC_acc_level_1 0
Core_0_LLC_acc_level_2 0
Core_0_LLC_acc_level_3 0
Core_0_LLC_acc_level_4 0
Core_0_LLC_acc_level_5 0
Core_0_LLC_acc_level_6 0
Core_0_LLC_acc_level_7 0
Core_0_LLC_acc_level_8 0
Core_0_LLC_acc_level_9 0

Core_0_major_page_fault 0
Core_0_minor_page_fault 4269

Channel_0_RQ_row_buffer_hit 56564
Channel_0_RQ_row_buffer_miss 163768
Channel_0_WQ_row_buffer_hit 48779
Channel_0_WQ_row_buffer_miss 16247
Channel_0_WQ_full 0
Channel_0_dbus_congested 57346

avg_congested_cycle 10

DRAM_bw_pochs 366776
DRAM_bw_level_0 343184
DRAM_bw_level_1 23564
DRAM_bw_level_2 28
DRAM_bw_level_3 0
