*************************************************
   ChampSim Multicore Out-of-Order Simulator
   Last compiled: Apr  3 2025 20:54:34
*************************************************
parsing config file: /home/zir/Pythia/config/nopref.ini

trace_0 /home/zir/ChampSim/ML-DPC/ChampSimTraces/spec17/623.xalancbmk-s3.trace.xz
adding L2C_PREFETCHER: NONE
Initialize SHIP state
warmup_instructions 10000000
simulation_instructions 50000000
champsim_seed 166
measure_ipc 0
measure_ipc_epoch 1000
measure_dram_bw 1
measure_dram_bw_epoch 256
measure_cache_acc 1
measure_cache_acc_epoch 1024
l1d_perfect 0
l2c_perfect 0
llc_perfect 0
l1d_semi_perfect 0
l2c_semi_perfect 0
llc_semi_perfect 0
semi_perfect_cache_page_buffer_size 64

num_cpus 1
cpu_freq 4000
dram_io_freq 2400
page_size 4096
block_size 64
max_read_per_cycle 8
max_fill_per_cycle 1
dram_channels 1
log2_dram_channels 0
dram_ranks 1
dram_banks 8
dram_rows 65536
dram_columns 128
dram_row_size 8
dram_size 4096
dram_pages 1048576

fetch_width 6
decode_width 6
exec_width 4
lq_width 2
sq_width 2
retire_width 4
scheduler_size 128
branch_mispredict_penalty 20
rob_size 256
lq_size 72
sq_size 56
num_instr_destinations_sparc 4
num_instr_destinations 2
num_instr_sources 4

itlb_set 16
itlb_way 8
itlb_rq_size 16
itlb_wq_size 16
itlb_pq_size 0
itlb_mshr_size 8
itlb_latency 1

dtlb_set 16
dtlb_way 4
dtlb_rq_size 16
dtlb_wq_size 16
dtlb_pq_size 0
dtlb_mshr_size 8
dtlb_latency 1

stlb_set 128
stlb_way 12
stlb_rq_size 32
stlb_wq_size 32
stlb_pq_size 0
stlb_mshr_size 16
stlb_latency 8

l1i_size 32
l1i_set 64
l1i_way 8
l1i_rq_size 64
l1i_wq_size 64
l1i_pq_size 8
l1i_mshr_size 8
l1i_latency 1

l1d_size 32
l1d_set 64
l1d_way 8
l1d_rq_size 64
l1d_wq_size 64
l1d_pq_size 8
l1d_mshr_size 16
l1d_latency 4

l2c_size 256
l2c_set 512
l2c_way 8
l2c_rq_size 32
l2c_wq_size 32
l2c_pq_size 32
l2c_mshr_size 32
l2c_latency 10

llc_size 2048
llc_set 2048
llc_way 16
llc_rq_size 32
llc_wq_size 32
llc_pq_size 32
llc_mshr_size 64
llc_latency 20

dram_channel_width 8
dram_wq_size 64
dram_rq_size 64
tRP 15
tRCD 15
tCAS 12.5
dram_dbus_turn_around_time 30
dram_write_high_wm 56
dram_write_low_wm 48
min_dram_writes_per_switch 16
dram_mtps 2400
dram_dbus_return_time 13


Heartbeat CPU  0 instructions:    1000002 cycles:     715044 heartbeat IPC: 1.39852 cumulative IPC: 1.39852 (Simulation time: 0 hr 0 min 2 sec) 
Heartbeat CPU  0 instructions:    2000000 cycles:    1392012 heartbeat IPC: 1.47717 cumulative IPC: 1.43677 (Simulation time: 0 hr 0 min 3 sec) 
Heartbeat CPU  0 instructions:    3000001 cycles:    2058693 heartbeat IPC: 1.49997 cumulative IPC: 1.45724 (Simulation time: 0 hr 0 min 5 sec) 
Heartbeat CPU  0 instructions:    4000000 cycles:    2719880 heartbeat IPC: 1.51243 cumulative IPC: 1.47065 (Simulation time: 0 hr 0 min 7 sec) 
Heartbeat CPU  0 instructions:    5000000 cycles:    3377114 heartbeat IPC: 1.52153 cumulative IPC: 1.48055 (Simulation time: 0 hr 0 min 8 sec) 
Heartbeat CPU  0 instructions:    6000000 cycles:    4040629 heartbeat IPC: 1.50712 cumulative IPC: 1.48492 (Simulation time: 0 hr 0 min 10 sec) 
Heartbeat CPU  0 instructions:    7000002 cycles:    4697033 heartbeat IPC: 1.52346 cumulative IPC: 1.49030 (Simulation time: 0 hr 0 min 11 sec) 
Heartbeat CPU  0 instructions:    8000000 cycles:    5311452 heartbeat IPC: 1.62755 cumulative IPC: 1.50618 (Simulation time: 0 hr 0 min 13 sec) 
Heartbeat CPU  0 instructions:    9000000 cycles:    5829747 heartbeat IPC: 1.92940 cumulative IPC: 1.54381 (Simulation time: 0 hr 0 min 14 sec) 
Heartbeat CPU  0 instructions:   10000000 cycles:    6349654 heartbeat IPC: 1.92342 cumulative IPC: 1.57489 (Simulation time: 0 hr 0 min 16 sec) 

Warmup complete CPU  0 instructions:   10000004 cycles:    6349655 (Simulation time: 0 hr 0 min 16 sec) 

Heartbeat CPU  0 instructions:   11000000 cycles:    8193143 heartbeat IPC: 0.54245 cumulative IPC: 0.54245 (Simulation time: 0 hr 0 min 18 sec) 
Heartbeat CPU  0 instructions:   12000000 cycles:   10270937 heartbeat IPC: 0.48128 cumulative IPC: 0.51004 (Simulation time: 0 hr 0 min 20 sec) 
Heartbeat CPU  0 instructions:   13000002 cycles:   13134499 heartbeat IPC: 0.34922 cumulative IPC: 0.44216 (Simulation time: 0 hr 0 min 22 sec) 
Heartbeat CPU  0 instructions:   14000000 cycles:   16101635 heartbeat IPC: 0.33702 cumulative IPC: 0.41017 (Simulation time: 0 hr 0 min 24 sec) 
Heartbeat CPU  0 instructions:   15000001 cycles:   19025752 heartbeat IPC: 0.34198 cumulative IPC: 0.39444 (Simulation time: 0 hr 0 min 27 sec) 
Heartbeat CPU  0 instructions:   16000000 cycles:   21892735 heartbeat IPC: 0.34880 cumulative IPC: 0.38602 (Simulation time: 0 hr 0 min 30 sec) 
Heartbeat CPU  0 instructions:   17000001 cycles:   24706544 heartbeat IPC: 0.35539 cumulative IPC: 0.38133 (Simulation time: 0 hr 0 min 32 sec) 
Heartbeat CPU  0 instructions:   18000001 cycles:   27484102 heartbeat IPC: 0.36003 cumulative IPC: 0.37853 (Simulation time: 0 hr 0 min 35 sec) 
Heartbeat CPU  0 instructions:   19000001 cycles:   30217960 heartbeat IPC: 0.36578 cumulative IPC: 0.37707 (Simulation time: 0 hr 0 min 37 sec) 
Heartbeat CPU  0 instructions:   20000000 cycles:   32912733 heartbeat IPC: 0.37109 cumulative IPC: 0.37646 (Simulation time: 0 hr 0 min 40 sec) 
Heartbeat CPU  0 instructions:   21000002 cycles:   35569283 heartbeat IPC: 0.37643 cumulative IPC: 0.37646 (Simulation time: 0 hr 0 min 42 sec) 
Heartbeat CPU  0 instructions:   22000000 cycles:   38195368 heartbeat IPC: 0.38079 cumulative IPC: 0.37682 (Simulation time: 0 hr 0 min 44 sec) 
Heartbeat CPU  0 instructions:   23000003 cycles:   40792298 heartbeat IPC: 0.38507 cumulative IPC: 0.37744 (Simulation time: 0 hr 0 min 47 sec) 
Heartbeat CPU  0 instructions:   24000000 cycles:   43352457 heartbeat IPC: 0.39060 cumulative IPC: 0.37835 (Simulation time: 0 hr 0 min 49 sec) 
Heartbeat CPU  0 instructions:   25000000 cycles:   45882337 heartbeat IPC: 0.39528 cumulative IPC: 0.37943 (Simulation time: 0 hr 0 min 52 sec) 
Heartbeat CPU  0 instructions:   26000000 cycles:   48394879 heartbeat IPC: 0.39800 cumulative IPC: 0.38054 (Simulation time: 0 hr 0 min 54 sec) 
Heartbeat CPU  0 instructions:   27000000 cycles:   50891266 heartbeat IPC: 0.40058 cumulative IPC: 0.38167 (Simulation time: 0 hr 0 min 57 sec) 
Heartbeat CPU  0 instructions:   28000000 cycles:   53357478 heartbeat IPC: 0.40548 cumulative IPC: 0.38291 (Simulation time: 0 hr 0 min 59 sec) 
Heartbeat CPU  0 instructions:   29000000 cycles:   55819094 heartbeat IPC: 0.40624 cumulative IPC: 0.38408 (Simulation time: 0 hr 1 min 1 sec) 
Heartbeat CPU  0 instructions:   30000002 cycles:   58257000 heartbeat IPC: 0.41019 cumulative IPC: 0.38530 (Simulation time: 0 hr 1 min 4 sec) 
Heartbeat CPU  0 instructions:   31000003 cycles:   60685582 heartbeat IPC: 0.41176 cumulative IPC: 0.38648 (Simulation time: 0 hr 1 min 6 sec) 
Heartbeat CPU  0 instructions:   32000000 cycles:   63088118 heartbeat IPC: 0.41623 cumulative IPC: 0.38774 (Simulation time: 0 hr 1 min 8 sec) 
Heartbeat CPU  0 instructions:   33000001 cycles:   65485181 heartbeat IPC: 0.41718 cumulative IPC: 0.38894 (Simulation time: 0 hr 1 min 11 sec) 
Heartbeat CPU  0 instructions:   34000001 cycles:   67861283 heartbeat IPC: 0.42086 cumulative IPC: 0.39017 (Simulation time: 0 hr 1 min 13 sec) 
Heartbeat CPU  0 instructions:   35000000 cycles:   70233105 heartbeat IPC: 0.42162 cumulative IPC: 0.39134 (Simulation time: 0 hr 1 min 16 sec) 
Heartbeat CPU  0 instructions:   36000000 cycles:   72565802 heartbeat IPC: 0.42869 cumulative IPC: 0.39265 (Simulation time: 0 hr 1 min 18 sec) 
Heartbeat CPU  0 instructions:   37000001 cycles:   74909023 heartbeat IPC: 0.42676 cumulative IPC: 0.39382 (Simulation time: 0 hr 1 min 20 sec) 
Heartbeat CPU  0 instructions:   38000000 cycles:   77221909 heartbeat IPC: 0.43236 cumulative IPC: 0.39508 (Simulation time: 0 hr 1 min 23 sec) 
Heartbeat CPU  0 instructions:   39000000 cycles:   79518389 heartbeat IPC: 0.43545 cumulative IPC: 0.39634 (Simulation time: 0 hr 1 min 25 sec) 
Heartbeat CPU  0 instructions:   40000000 cycles:   81802542 heartbeat IPC: 0.43780 cumulative IPC: 0.39760 (Simulation time: 0 hr 1 min 27 sec) 
Heartbeat CPU  0 instructions:   41000000 cycles:   84090895 heartbeat IPC: 0.43700 cumulative IPC: 0.39876 (Simulation time: 0 hr 1 min 29 sec) 
Heartbeat CPU  0 instructions:   42000001 cycles:   86140043 heartbeat IPC: 0.48801 cumulative IPC: 0.40105 (Simulation time: 0 hr 1 min 32 sec) 
Heartbeat CPU  0 instructions:   43000002 cycles:   87452287 heartbeat IPC: 0.76205 cumulative IPC: 0.40689 (Simulation time: 0 hr 1 min 34 sec) 
Heartbeat CPU  0 instructions:   44000000 cycles:   88752889 heartbeat IPC: 0.76887 cumulative IPC: 0.41261 (Simulation time: 0 hr 1 min 35 sec) 
Heartbeat CPU  0 instructions:   45000000 cycles:   90071102 heartbeat IPC: 0.75860 cumulative IPC: 0.41805 (Simulation time: 0 hr 1 min 37 sec) 
Heartbeat CPU  0 instructions:   46000000 cycles:   91377710 heartbeat IPC: 0.76534 cumulative IPC: 0.42339 (Simulation time: 0 hr 1 min 39 sec) 
Heartbeat CPU  0 instructions:   47000000 cycles:   92708167 heartbeat IPC: 0.75162 cumulative IPC: 0.42845 (Simulation time: 0 hr 1 min 41 sec) 
Heartbeat CPU  0 instructions:   48000000 cycles:   94080877 heartbeat IPC: 0.72849 cumulative IPC: 0.43314 (Simulation time: 0 hr 1 min 43 sec) 
Heartbeat CPU  0 instructions:   49000000 cycles:   95450297 heartbeat IPC: 0.73024 cumulative IPC: 0.43771 (Simulation time: 0 hr 1 min 45 sec) 
Heartbeat CPU  0 instructions:   50000001 cycles:   96868289 heartbeat IPC: 0.70522 cumulative IPC: 0.44190 (Simulation time: 0 hr 1 min 47 sec) 
Heartbeat CPU  0 instructions:   51000003 cycles:   98312697 heartbeat IPC: 0.69233 cumulative IPC: 0.44583 (Simulation time: 0 hr 1 min 49 sec) 
Heartbeat CPU  0 instructions:   52000000 cycles:   99791469 heartbeat IPC: 0.67623 cumulative IPC: 0.44948 (Simulation time: 0 hr 1 min 50 sec) 
Heartbeat CPU  0 instructions:   53000000 cycles:  101313430 heartbeat IPC: 0.65705 cumulative IPC: 0.45280 (Simulation time: 0 hr 1 min 52 sec) 
Heartbeat CPU  0 instructions:   54000000 cycles:  102915628 heartbeat IPC: 0.62414 cumulative IPC: 0.45565 (Simulation time: 0 hr 1 min 54 sec) 
Heartbeat CPU  0 instructions:   55000000 cycles:  104546233 heartbeat IPC: 0.61327 cumulative IPC: 0.45826 (Simulation time: 0 hr 1 min 56 sec) 
Heartbeat CPU  0 instructions:   56000000 cycles:  106241322 heartbeat IPC: 0.58994 cumulative IPC: 0.46050 (Simulation time: 0 hr 1 min 58 sec) 
Heartbeat CPU  0 instructions:   57000000 cycles:  107996225 heartbeat IPC: 0.56983 cumulative IPC: 0.46239 (Simulation time: 0 hr 2 min 0 sec) 
Heartbeat CPU  0 instructions:   58000000 cycles:  109741099 heartbeat IPC: 0.57311 cumulative IPC: 0.46426 (Simulation time: 0 hr 2 min 2 sec) 
Heartbeat CPU  0 instructions:   59000000 cycles:  111631211 heartbeat IPC: 0.52907 cumulative IPC: 0.46542 (Simulation time: 0 hr 2 min 4 sec) 
Heartbeat CPU  0 instructions:   60000000 cycles:  113734466 heartbeat IPC: 0.47545 cumulative IPC: 0.46562 (Simulation time: 0 hr 2 min 6 sec) 
Finished CPU 0 instructions: 50000001 cycles: 107384828 cumulative IPC: 0.46562 (Simulation time: 0 hr 2 min 6 sec) 

ChampSim completed all CPUs

[ROI Statistics]
Core_0_instructions 50000001
Core_0_cycles 107384828
Core_0_IPC 0.46562

Core_0_branch_prediction_accuracy 99.30325
Core_0_branch_MPKI 1.81520
Core_0_average_ROB_occupancy_at_mispredict 120.97390

Core_0_L1D_total_access 11990007
Core_0_L1D_total_hit 10021303
Core_0_L1D_total_miss 1968704
Core_0_L1D_loads 8346530
Core_0_L1D_load_hit 6472918
Core_0_L1D_load_miss 1873612
Core_0_L1D_RFOs 3643477
Core_0_L1D_RFO_hit 3548385
Core_0_L1D_RFO_miss 95092
Core_0_L1D_prefetches 0
Core_0_L1D_prefetch_hit 0
Core_0_L1D_prefetch_miss 0
Core_0_L1D_writebacks 0
Core_0_L1D_writeback_hit 0
Core_0_L1D_writeback_miss 0
Core_0_L1D_prefetch_requested 0
Core_0_L1D_prefetch_dropped 0
Core_0_L1D_prefetch_issued 0
Core_0_L1D_prefetch_filled 0
Core_0_L1D_prefetch_useful 0
Core_0_L1D_prefetch_useless 0
Core_0_L1D_prefetch_late 0
Core_0_L1D_average_miss_latency 24.71246

Core_0_L1D_rq_access 15366368
Core_0_L1D_rq_forward 0
Core_0_L1D_rq_merged 6845385
Core_0_L1D_rq_to_cache 8520149
Core_0_L1D_rq_full 0

Core_0_L1D_wq_access 3888410
Core_0_L1D_wq_forward 834
Core_0_L1D_wq_merged 30123
Core_0_L1D_wq_to_cache 3858287
Core_0_L1D_wq_full 1504

Core_0_L1D_pq_access 0
Core_0_L1D_pq_forward 0
Core_0_L1D_pq_merged 0
Core_0_L1D_pq_to_cache 0
Core_0_L1D_pq_full 0

Core_0_L1D_acc_epochs 110936
Core_0_L1D_acc_level_0 110936
Core_0_L1D_acc_level_1 0
Core_0_L1D_acc_level_2 0
Core_0_L1D_acc_level_3 0
Core_0_L1D_acc_level_4 0
Core_0_L1D_acc_level_5 0
Core_0_L1D_acc_level_6 0
Core_0_L1D_acc_level_7 0
Core_0_L1D_acc_level_8 0
Core_0_L1D_acc_level_9 0

Core_0_L1I_total_access 21242434
Core_0_L1I_total_hit 21112504
Core_0_L1I_total_miss 129930
Core_0_L1I_loads 21242434
Core_0_L1I_load_hit 21112504
Core_0_L1I_load_miss 129930
Core_0_L1I_RFOs 0
Core_0_L1I_RFO_hit 0
Core_0_L1I_RFO_miss 0
Core_0_L1I_prefetches 0
Core_0_L1I_prefetch_hit 0
Core_0_L1I_prefetch_miss 0
Core_0_L1I_writebacks 0
Core_0_L1I_writeback_hit 0
Core_0_L1I_writeback_miss 0
Core_0_L1I_prefetch_requested 0
Core_0_L1I_prefetch_dropped 0
Core_0_L1I_prefetch_issued 0
Core_0_L1I_prefetch_filled 0
Core_0_L1I_prefetch_useful 0
Core_0_L1I_prefetch_useless 0
Core_0_L1I_prefetch_late 0
Core_0_L1I_average_miss_latency 13.85280

Core_0_L1I_rq_access 50000004
Core_0_L1I_rq_forward 0
Core_0_L1I_rq_merged 28657283
Core_0_L1I_rq_to_cache 21342721
Core_0_L1I_rq_full 0

Core_0_L1I_wq_access 0
Core_0_L1I_wq_forward 0
Core_0_L1I_wq_merged 0
Core_0_L1I_wq_to_cache 0
Core_0_L1I_wq_full 0

Core_0_L1I_pq_access 0
Core_0_L1I_pq_forward 0
Core_0_L1I_pq_merged 0
Core_0_L1I_pq_to_cache 0
Core_0_L1I_pq_full 0

Core_0_L1I_acc_epochs 110936
Core_0_L1I_acc_level_0 110936
Core_0_L1I_acc_level_1 0
Core_0_L1I_acc_level_2 0
Core_0_L1I_acc_level_3 0
Core_0_L1I_acc_level_4 0
Core_0_L1I_acc_level_5 0
Core_0_L1I_acc_level_6 0
Core_0_L1I_acc_level_7 0
Core_0_L1I_acc_level_8 0
Core_0_L1I_acc_level_9 0

Core_0_L2C_total_access 2254259
Core_0_L2C_total_hit 1991711
Core_0_L2C_total_miss 262548
Core_0_L2C_loads 2003530
Core_0_L2C_load_hit 1813300
Core_0_L2C_load_miss 190230
Core_0_L2C_RFOs 95090
Core_0_L2C_RFO_hit 22781
Core_0_L2C_RFO_miss 72309
Core_0_L2C_prefetches 0
Core_0_L2C_prefetch_hit 0
Core_0_L2C_prefetch_miss 0
Core_0_L2C_writebacks 155639
Core_0_L2C_writeback_hit 155630
Core_0_L2C_writeback_miss 9
Core_0_L2C_prefetch_requested 0
Core_0_L2C_prefetch_dropped 0
Core_0_L2C_prefetch_issued 0
Core_0_L2C_prefetch_filled 0
Core_0_L2C_prefetch_useful 0
Core_0_L2C_prefetch_useless 0
Core_0_L2C_prefetch_late 0
Core_0_L2C_average_miss_latency 80.58360

Core_0_L2C_rq_access 2098634
Core_0_L2C_rq_forward 0
Core_0_L2C_rq_merged 0
Core_0_L2C_rq_to_cache 2098620
Core_0_L2C_rq_full 0

Core_0_L2C_wq_access 155639
Core_0_L2C_wq_forward 14
Core_0_L2C_wq_merged 0
Core_0_L2C_wq_to_cache 155639
Core_0_L2C_wq_full 0

Core_0_L2C_pq_access 0
Core_0_L2C_pq_forward 0
Core_0_L2C_pq_merged 0
Core_0_L2C_pq_to_cache 0
Core_0_L2C_pq_full 0

Core_0_L2C_acc_epochs 110936
Core_0_L2C_acc_level_0 110936
Core_0_L2C_acc_level_1 0
Core_0_L2C_acc_level_2 0
Core_0_L2C_acc_level_3 0
Core_0_L2C_acc_level_4 0
Core_0_L2C_acc_level_5 0
Core_0_L2C_acc_level_6 0
Core_0_L2C_acc_level_7 0
Core_0_L2C_acc_level_8 0
Core_0_L2C_acc_level_9 0

Core_0_LLC_total_access 352439
Core_0_LLC_total_hit 260679
Core_0_LLC_total_miss 91760
Core_0_LLC_loads 190230
Core_0_LLC_load_hit 180491
Core_0_LLC_load_miss 9739
Core_0_LLC_RFOs 72309
Core_0_LLC_RFO_hit 12256
Core_0_LLC_RFO_miss 60053
Core_0_LLC_prefetches 0
Core_0_LLC_prefetch_hit 0
Core_0_LLC_prefetch_miss 0
Core_0_LLC_writebacks 89900
Core_0_LLC_writeback_hit 67932
Core_0_LLC_writeback_miss 21968
Core_0_LLC_prefetch_requested 0
Core_0_LLC_prefetch_dropped 0
Core_0_LLC_prefetch_issued 0
Core_0_LLC_prefetch_filled 0
Core_0_LLC_prefetch_useful 0
Core_0_LLC_prefetch_useless 0
Core_0_LLC_prefetch_late 0
Core_0_LLC_average_miss_latency 144.66143

Core_0_LLC_rq_access 262539
Core_0_LLC_rq_forward 0
Core_0_LLC_rq_merged 0
Core_0_LLC_rq_to_cache 262539
Core_0_LLC_rq_full 0

Core_0_LLC_wq_access 89900
Core_0_LLC_wq_forward 0
Core_0_LLC_wq_merged 0
Core_0_LLC_wq_to_cache 89900
Core_0_LLC_wq_full 0

Core_0_LLC_pq_access 0
Core_0_LLC_pq_forward 0
Core_0_LLC_pq_merged 0
Core_0_LLC_pq_to_cache 0
Core_0_LLC_pq_full 0

Core_0_LLC_acc_epochs 111069
Core_0_LLC_acc_level_0 111069
Core_0_LLC_acc_level_1 0
Core_0_LLC_acc_level_2 0
Core_0_LLC_acc_level_3 0
Core_0_LLC_acc_level_4 0
Core_0_LLC_acc_level_5 0
Core_0_LLC_acc_level_6 0
Core_0_LLC_acc_level_7 0
Core_0_LLC_acc_level_8 0
Core_0_LLC_acc_level_9 0

Core_0_major_page_fault 0
Core_0_minor_page_fault 2037

Channel_0_RQ_row_buffer_hit 35386
Channel_0_RQ_row_buffer_miss 34405
Channel_0_WQ_row_buffer_hit 6932
Channel_0_WQ_row_buffer_miss 42375
Channel_0_WQ_full 0
Channel_0_dbus_congested 65351

avg_congested_cycle 11

DRAM_bw_pochs 444276
DRAM_bw_level_0 437496
DRAM_bw_level_1 2627
DRAM_bw_level_2 1419
DRAM_bw_level_3 2734
