*************************************************
   ChampSim Multicore Out-of-Order Simulator
   Last compiled: Apr  3 2025 20:54:34
*************************************************
parsing config file: /home/zir/Pythia/config/nopref.ini

trace_0 /home/zir/ChampSim/ML-DPC/ChampSimTraces/spec17/654.roms-s7.trace.xz
adding L2C_PREFETCHER: NONE
Initialize SHIP state
warmup_instructions 10000000
simulation_instructions 50000000
champsim_seed 170
measure_ipc 0
measure_ipc_epoch 1000
measure_dram_bw 1
measure_dram_bw_epoch 256
measure_cache_acc 1
measure_cache_acc_epoch 1024
l1d_perfect 0
l2c_perfect 0
llc_perfect 0
l1d_semi_perfect 0
l2c_semi_perfect 0
llc_semi_perfect 0
semi_perfect_cache_page_buffer_size 64

num_cpus 1
cpu_freq 4000
dram_io_freq 2400
page_size 4096
block_size 64
max_read_per_cycle 8
max_fill_per_cycle 1
dram_channels 1
log2_dram_channels 0
dram_ranks 1
dram_banks 8
dram_rows 65536
dram_columns 128
dram_row_size 8
dram_size 4096
dram_pages 1048576

fetch_width 6
decode_width 6
exec_width 4
lq_width 2
sq_width 2
retire_width 4
scheduler_size 128
branch_mispredict_penalty 20
rob_size 256
lq_size 72
sq_size 56
num_instr_destinations_sparc 4
num_instr_destinations 2
num_instr_sources 4

itlb_set 16
itlb_way 8
itlb_rq_size 16
itlb_wq_size 16
itlb_pq_size 0
itlb_mshr_size 8
itlb_latency 1

dtlb_set 16
dtlb_way 4
dtlb_rq_size 16
dtlb_wq_size 16
dtlb_pq_size 0
dtlb_mshr_size 8
dtlb_latency 1

stlb_set 128
stlb_way 12
stlb_rq_size 32
stlb_wq_size 32
stlb_pq_size 0
stlb_mshr_size 16
stlb_latency 8

l1i_size 32
l1i_set 64
l1i_way 8
l1i_rq_size 64
l1i_wq_size 64
l1i_pq_size 8
l1i_mshr_size 8
l1i_latency 1

l1d_size 32
l1d_set 64
l1d_way 8
l1d_rq_size 64
l1d_wq_size 64
l1d_pq_size 8
l1d_mshr_size 16
l1d_latency 4

l2c_size 256
l2c_set 512
l2c_way 8
l2c_rq_size 32
l2c_wq_size 32
l2c_pq_size 32
l2c_mshr_size 32
l2c_latency 10

llc_size 2048
llc_set 2048
llc_way 16
llc_rq_size 32
llc_wq_size 32
llc_pq_size 32
llc_mshr_size 64
llc_latency 20

dram_channel_width 8
dram_wq_size 64
dram_rq_size 64
tRP 15
tRCD 15
tCAS 12.5
dram_dbus_turn_around_time 30
dram_write_high_wm 56
dram_write_low_wm 48
min_dram_writes_per_switch 16
dram_mtps 2400
dram_dbus_return_time 13


Heartbeat CPU  0 instructions:    1000001 cycles:     529978 heartbeat IPC: 1.88687 cumulative IPC: 1.88687 (Simulation time: 0 hr 0 min 1 sec) 
Heartbeat CPU  0 instructions:    2000001 cycles:    1059989 heartbeat IPC: 1.88675 cumulative IPC: 1.88681 (Simulation time: 0 hr 0 min 3 sec) 
Heartbeat CPU  0 instructions:    3000001 cycles:    1590036 heartbeat IPC: 1.88663 cumulative IPC: 1.88675 (Simulation time: 0 hr 0 min 5 sec) 
Heartbeat CPU  0 instructions:    4000000 cycles:    2120399 heartbeat IPC: 1.88550 cumulative IPC: 1.88644 (Simulation time: 0 hr 0 min 7 sec) 
Heartbeat CPU  0 instructions:    5000000 cycles:    2506288 heartbeat IPC: 2.59142 cumulative IPC: 1.99498 (Simulation time: 0 hr 0 min 8 sec) 
Heartbeat CPU  0 instructions:    6000001 cycles:    2889508 heartbeat IPC: 2.60947 cumulative IPC: 2.07648 (Simulation time: 0 hr 0 min 9 sec) 
Heartbeat CPU  0 instructions:    7000001 cycles:    3275156 heartbeat IPC: 2.59304 cumulative IPC: 2.13730 (Simulation time: 0 hr 0 min 10 sec) 
Heartbeat CPU  0 instructions:    8000000 cycles:    3661186 heartbeat IPC: 2.59047 cumulative IPC: 2.18508 (Simulation time: 0 hr 0 min 11 sec) 
Heartbeat CPU  0 instructions:    9000001 cycles:    4046366 heartbeat IPC: 2.59619 cumulative IPC: 2.22422 (Simulation time: 0 hr 0 min 12 sec) 
Heartbeat CPU  0 instructions:   10000001 cycles:    4432019 heartbeat IPC: 2.59300 cumulative IPC: 2.25631 (Simulation time: 0 hr 0 min 13 sec) 

Warmup complete CPU  0 instructions:   10000001 cycles:    4432019 (Simulation time: 0 hr 0 min 13 sec) 

Heartbeat CPU  0 instructions:   11000002 cycles:    5892756 heartbeat IPC: 0.68459 cumulative IPC: 0.68459 (Simulation time: 0 hr 0 min 14 sec) 
Heartbeat CPU  0 instructions:   12000000 cycles:    7359579 heartbeat IPC: 0.68174 cumulative IPC: 0.68316 (Simulation time: 0 hr 0 min 16 sec) 
Heartbeat CPU  0 instructions:   13000001 cycles:    8794701 heartbeat IPC: 0.69681 cumulative IPC: 0.68765 (Simulation time: 0 hr 0 min 18 sec) 
Heartbeat CPU  0 instructions:   14000002 cycles:   10255147 heartbeat IPC: 0.68472 cumulative IPC: 0.68692 (Simulation time: 0 hr 0 min 20 sec) 
Heartbeat CPU  0 instructions:   15000001 cycles:   11722323 heartbeat IPC: 0.68158 cumulative IPC: 0.68584 (Simulation time: 0 hr 0 min 21 sec) 
Heartbeat CPU  0 instructions:   16000000 cycles:   13189194 heartbeat IPC: 0.68172 cumulative IPC: 0.68515 (Simulation time: 0 hr 0 min 23 sec) 
Heartbeat CPU  0 instructions:   17000002 cycles:   14681375 heartbeat IPC: 0.67016 cumulative IPC: 0.68297 (Simulation time: 0 hr 0 min 25 sec) 
Heartbeat CPU  0 instructions:   18000001 cycles:   16205683 heartbeat IPC: 0.65603 cumulative IPC: 0.67948 (Simulation time: 0 hr 0 min 27 sec) 
Heartbeat CPU  0 instructions:   19000000 cycles:   20660688 heartbeat IPC: 0.22447 cumulative IPC: 0.55457 (Simulation time: 0 hr 0 min 30 sec) 
Heartbeat CPU  0 instructions:   20000000 cycles:   24406321 heartbeat IPC: 0.26698 cumulative IPC: 0.50064 (Simulation time: 0 hr 0 min 33 sec) 
Heartbeat CPU  0 instructions:   21000003 cycles:   28139565 heartbeat IPC: 0.26786 cumulative IPC: 0.46399 (Simulation time: 0 hr 0 min 36 sec) 
Heartbeat CPU  0 instructions:   22000003 cycles:   31006686 heartbeat IPC: 0.34878 cumulative IPC: 0.45156 (Simulation time: 0 hr 0 min 39 sec) 
Heartbeat CPU  0 instructions:   23000003 cycles:   33613177 heartbeat IPC: 0.38366 cumulative IPC: 0.44549 (Simulation time: 0 hr 0 min 41 sec) 
Heartbeat CPU  0 instructions:   24000000 cycles:   36211239 heartbeat IPC: 0.38490 cumulative IPC: 0.44054 (Simulation time: 0 hr 0 min 44 sec) 
Heartbeat CPU  0 instructions:   25000002 cycles:   39784209 heartbeat IPC: 0.27988 cumulative IPC: 0.42430 (Simulation time: 0 hr 0 min 47 sec) 
Heartbeat CPU  0 instructions:   26000000 cycles:   43085451 heartbeat IPC: 0.30292 cumulative IPC: 0.41393 (Simulation time: 0 hr 0 min 50 sec) 
Heartbeat CPU  0 instructions:   27000002 cycles:   46311407 heartbeat IPC: 0.30999 cumulative IPC: 0.40593 (Simulation time: 0 hr 0 min 53 sec) 
Heartbeat CPU  0 instructions:   28000000 cycles:   49506046 heartbeat IPC: 0.31302 cumulative IPC: 0.39934 (Simulation time: 0 hr 0 min 56 sec) 
Heartbeat CPU  0 instructions:   29000002 cycles:   52771013 heartbeat IPC: 0.30628 cumulative IPC: 0.39306 (Simulation time: 0 hr 0 min 59 sec) 
Heartbeat CPU  0 instructions:   30000002 cycles:   56065993 heartbeat IPC: 0.30349 cumulative IPC: 0.38734 (Simulation time: 0 hr 1 min 2 sec) 
Heartbeat CPU  0 instructions:   31000003 cycles:   59417931 heartbeat IPC: 0.29834 cumulative IPC: 0.38192 (Simulation time: 0 hr 1 min 5 sec) 
Heartbeat CPU  0 instructions:   32000000 cycles:   62761362 heartbeat IPC: 0.29909 cumulative IPC: 0.37717 (Simulation time: 0 hr 1 min 8 sec) 
Heartbeat CPU  0 instructions:   33000001 cycles:   66876699 heartbeat IPC: 0.24299 cumulative IPC: 0.36833 (Simulation time: 0 hr 1 min 11 sec) 
Heartbeat CPU  0 instructions:   34000002 cycles:   70954383 heartbeat IPC: 0.24524 cumulative IPC: 0.36078 (Simulation time: 0 hr 1 min 14 sec) 
Heartbeat CPU  0 instructions:   35000002 cycles:   74525411 heartbeat IPC: 0.28003 cumulative IPC: 0.35667 (Simulation time: 0 hr 1 min 17 sec) 
Heartbeat CPU  0 instructions:   36000000 cycles:   77562928 heartbeat IPC: 0.32922 cumulative IPC: 0.35553 (Simulation time: 0 hr 1 min 19 sec) 
Heartbeat CPU  0 instructions:   37000000 cycles:   80527056 heartbeat IPC: 0.33737 cumulative IPC: 0.35482 (Simulation time: 0 hr 1 min 21 sec) 
Heartbeat CPU  0 instructions:   38000000 cycles:   83318572 heartbeat IPC: 0.35823 cumulative IPC: 0.35494 (Simulation time: 0 hr 1 min 24 sec) 
Heartbeat CPU  0 instructions:   39000002 cycles:   85810760 heartbeat IPC: 0.40125 cumulative IPC: 0.35636 (Simulation time: 0 hr 1 min 27 sec) 
Heartbeat CPU  0 instructions:   40000000 cycles:   88326458 heartbeat IPC: 0.39750 cumulative IPC: 0.35759 (Simulation time: 0 hr 1 min 29 sec) 
Heartbeat CPU  0 instructions:   41000003 cycles:   90865160 heartbeat IPC: 0.39390 cumulative IPC: 0.35866 (Simulation time: 0 hr 1 min 32 sec) 
Heartbeat CPU  0 instructions:   42000003 cycles:   93411024 heartbeat IPC: 0.39279 cumulative IPC: 0.35964 (Simulation time: 0 hr 1 min 34 sec) 
Heartbeat CPU  0 instructions:   43000000 cycles:   95910728 heartbeat IPC: 0.40005 cumulative IPC: 0.36074 (Simulation time: 0 hr 1 min 37 sec) 
Heartbeat CPU  0 instructions:   44000000 cycles:   98244082 heartbeat IPC: 0.42857 cumulative IPC: 0.36243 (Simulation time: 0 hr 1 min 40 sec) 
Heartbeat CPU  0 instructions:   45000003 cycles:  100585098 heartbeat IPC: 0.42717 cumulative IPC: 0.36400 (Simulation time: 0 hr 1 min 42 sec) 
Heartbeat CPU  0 instructions:   46000002 cycles:  102898893 heartbeat IPC: 0.43219 cumulative IPC: 0.36561 (Simulation time: 0 hr 1 min 45 sec) 
Heartbeat CPU  0 instructions:   47000000 cycles:  105202943 heartbeat IPC: 0.43402 cumulative IPC: 0.36717 (Simulation time: 0 hr 1 min 47 sec) 
Heartbeat CPU  0 instructions:   48000000 cycles:  107493208 heartbeat IPC: 0.43663 cumulative IPC: 0.36871 (Simulation time: 0 hr 1 min 50 sec) 
Heartbeat CPU  0 instructions:   49000000 cycles:  109758150 heartbeat IPC: 0.44151 cumulative IPC: 0.37028 (Simulation time: 0 hr 1 min 52 sec) 
Heartbeat CPU  0 instructions:   50000000 cycles:  111979892 heartbeat IPC: 0.45010 cumulative IPC: 0.37193 (Simulation time: 0 hr 1 min 55 sec) 
Heartbeat CPU  0 instructions:   51000002 cycles:  114925079 heartbeat IPC: 0.33954 cumulative IPC: 0.37106 (Simulation time: 0 hr 1 min 57 sec) 
Heartbeat CPU  0 instructions:   52000000 cycles:  118494474 heartbeat IPC: 0.28016 cumulative IPC: 0.36822 (Simulation time: 0 hr 2 min 0 sec) 
Heartbeat CPU  0 instructions:   53000002 cycles:  121915482 heartbeat IPC: 0.29231 cumulative IPC: 0.36601 (Simulation time: 0 hr 2 min 3 sec) 
Heartbeat CPU  0 instructions:   54000002 cycles:  124753973 heartbeat IPC: 0.35230 cumulative IPC: 0.36569 (Simulation time: 0 hr 2 min 6 sec) 
Heartbeat CPU  0 instructions:   55000000 cycles:  127422642 heartbeat IPC: 0.37472 cumulative IPC: 0.36588 (Simulation time: 0 hr 2 min 8 sec) 
Heartbeat CPU  0 instructions:   56000000 cycles:  129637603 heartbeat IPC: 0.45148 cumulative IPC: 0.36740 (Simulation time: 0 hr 2 min 11 sec) 
Heartbeat CPU  0 instructions:   57000003 cycles:  131821999 heartbeat IPC: 0.45779 cumulative IPC: 0.36895 (Simulation time: 0 hr 2 min 13 sec) 
Heartbeat CPU  0 instructions:   58000002 cycles:  133865288 heartbeat IPC: 0.48941 cumulative IPC: 0.37085 (Simulation time: 0 hr 2 min 16 sec) 
Heartbeat CPU  0 instructions:   59000002 cycles:  135913363 heartbeat IPC: 0.48826 cumulative IPC: 0.37268 (Simulation time: 0 hr 2 min 18 sec) 
Heartbeat CPU  0 instructions:   60000000 cycles:  137957685 heartbeat IPC: 0.48916 cumulative IPC: 0.37446 (Simulation time: 0 hr 2 min 21 sec) 
Finished CPU 0 instructions: 50000000 cycles: 133525674 cumulative IPC: 0.37446 (Simulation time: 0 hr 2 min 21 sec) 

ChampSim completed all CPUs

[ROI Statistics]
Core_0_instructions 50000000
Core_0_cycles 133525674
Core_0_IPC 0.37446

Core_0_branch_prediction_accuracy 99.83880
Core_0_branch_MPKI 0.10468
Core_0_average_ROB_occupancy_at_mispredict 251.81658

Core_0_L1D_total_access 11230665
Core_0_L1D_total_hit 9919108
Core_0_L1D_total_miss 1311557
Core_0_L1D_loads 9087075
Core_0_L1D_load_hit 8043900
Core_0_L1D_load_miss 1043175
Core_0_L1D_RFOs 2143590
Core_0_L1D_RFO_hit 1875208
Core_0_L1D_RFO_miss 268382
Core_0_L1D_prefetches 0
Core_0_L1D_prefetch_hit 0
Core_0_L1D_prefetch_miss 0
Core_0_L1D_writebacks 0
Core_0_L1D_writeback_hit 0
Core_0_L1D_writeback_miss 0
Core_0_L1D_prefetch_requested 0
Core_0_L1D_prefetch_dropped 0
Core_0_L1D_prefetch_issued 0
Core_0_L1D_prefetch_filled 0
Core_0_L1D_prefetch_useful 0
Core_0_L1D_prefetch_useless 0
Core_0_L1D_prefetch_late 0
Core_0_L1D_average_miss_latency 226.87879

Core_0_L1D_rq_access 18802544
Core_0_L1D_rq_forward 0
Core_0_L1D_rq_merged 8173894
Core_0_L1D_rq_to_cache 10628650
Core_0_L1D_rq_full 0

Core_0_L1D_wq_access 3113152
Core_0_L1D_wq_forward 0
Core_0_L1D_wq_merged 0
Core_0_L1D_wq_to_cache 3113152
Core_0_L1D_wq_full 0

Core_0_L1D_pq_access 0
Core_0_L1D_pq_forward 0
Core_0_L1D_pq_merged 0
Core_0_L1D_pq_to_cache 0
Core_0_L1D_pq_full 0

Core_0_L1D_acc_epochs 132015
Core_0_L1D_acc_level_0 132015
Core_0_L1D_acc_level_1 0
Core_0_L1D_acc_level_2 0
Core_0_L1D_acc_level_3 0
Core_0_L1D_acc_level_4 0
Core_0_L1D_acc_level_5 0
Core_0_L1D_acc_level_6 0
Core_0_L1D_acc_level_7 0
Core_0_L1D_acc_level_8 0
Core_0_L1D_acc_level_9 0

Core_0_L1I_total_access 12304812
Core_0_L1I_total_hit 12304746
Core_0_L1I_total_miss 66
Core_0_L1I_loads 12304812
Core_0_L1I_load_hit 12304746
Core_0_L1I_load_miss 66
Core_0_L1I_RFOs 0
Core_0_L1I_RFO_hit 0
Core_0_L1I_RFO_miss 0
Core_0_L1I_prefetches 0
Core_0_L1I_prefetch_hit 0
Core_0_L1I_prefetch_miss 0
Core_0_L1I_writebacks 0
Core_0_L1I_writeback_hit 0
Core_0_L1I_writeback_miss 0
Core_0_L1I_prefetch_requested 0
Core_0_L1I_prefetch_dropped 0
Core_0_L1I_prefetch_issued 0
Core_0_L1I_prefetch_filled 0
Core_0_L1I_prefetch_useful 0
Core_0_L1I_prefetch_useless 0
Core_0_L1I_prefetch_late 0
Core_0_L1I_average_miss_latency 273.87879

Core_0_L1I_rq_access 50000007
Core_0_L1I_rq_forward 0
Core_0_L1I_rq_merged 37694849
Core_0_L1I_rq_to_cache 12305158
Core_0_L1I_rq_full 0

Core_0_L1I_wq_access 0
Core_0_L1I_wq_forward 0
Core_0_L1I_wq_merged 0
Core_0_L1I_wq_to_cache 0
Core_0_L1I_wq_full 0

Core_0_L1I_pq_access 0
Core_0_L1I_pq_forward 0
Core_0_L1I_pq_merged 0
Core_0_L1I_pq_to_cache 0
Core_0_L1I_pq_full 0

Core_0_L1I_acc_epochs 132015
Core_0_L1I_acc_level_0 132015
Core_0_L1I_acc_level_1 0
Core_0_L1I_acc_level_2 0
Core_0_L1I_acc_level_3 0
Core_0_L1I_acc_level_4 0
Core_0_L1I_acc_level_5 0
Core_0_L1I_acc_level_6 0
Core_0_L1I_acc_level_7 0
Core_0_L1I_acc_level_8 0
Core_0_L1I_acc_level_9 0

Core_0_L2C_total_access 1716213
Core_0_L2C_total_hit 504491
Core_0_L2C_total_miss 1211722
Core_0_L2C_loads 1043241
Core_0_L2C_load_hit 99907
Core_0_L2C_load_miss 943334
Core_0_L2C_RFOs 268382
Core_0_L2C_RFO_hit 0
Core_0_L2C_RFO_miss 268382
Core_0_L2C_prefetches 0
Core_0_L2C_prefetch_hit 0
Core_0_L2C_prefetch_miss 0
Core_0_L2C_writebacks 404590
Core_0_L2C_writeback_hit 404584
Core_0_L2C_writeback_miss 6
Core_0_L2C_prefetch_requested 0
Core_0_L2C_prefetch_dropped 0
Core_0_L2C_prefetch_issued 0
Core_0_L2C_prefetch_filled 0
Core_0_L2C_prefetch_useful 0
Core_0_L2C_prefetch_useless 0
Core_0_L2C_prefetch_late 0
Core_0_L2C_average_miss_latency 229.60744

Core_0_L2C_rq_access 1311624
Core_0_L2C_rq_forward 0
Core_0_L2C_rq_merged 0
Core_0_L2C_rq_to_cache 1311624
Core_0_L2C_rq_full 0

Core_0_L2C_wq_access 404590
Core_0_L2C_wq_forward 0
Core_0_L2C_wq_merged 0
Core_0_L2C_wq_to_cache 404590
Core_0_L2C_wq_full 0

Core_0_L2C_pq_access 0
Core_0_L2C_pq_forward 0
Core_0_L2C_pq_merged 0
Core_0_L2C_pq_to_cache 0
Core_0_L2C_pq_full 0

Core_0_L2C_acc_epochs 132015
Core_0_L2C_acc_level_0 132015
Core_0_L2C_acc_level_1 0
Core_0_L2C_acc_level_2 0
Core_0_L2C_acc_level_3 0
Core_0_L2C_acc_level_4 0
Core_0_L2C_acc_level_5 0
Core_0_L2C_acc_level_6 0
Core_0_L2C_acc_level_7 0
Core_0_L2C_acc_level_8 0
Core_0_L2C_acc_level_9 0

Core_0_LLC_total_access 1613484
Core_0_LLC_total_hit 104579
Core_0_LLC_total_miss 1508905
Core_0_LLC_loads 943334
Core_0_LLC_load_hit 593
Core_0_LLC_load_miss 942741
Core_0_LLC_RFOs 268382
Core_0_LLC_RFO_hit 0
Core_0_LLC_RFO_miss 268382
Core_0_LLC_prefetches 0
Core_0_LLC_prefetch_hit 0
Core_0_LLC_prefetch_miss 0
Core_0_LLC_writebacks 401768
Core_0_LLC_writeback_hit 103986
Core_0_LLC_writeback_miss 297782
Core_0_LLC_prefetch_requested 0
Core_0_LLC_prefetch_dropped 0
Core_0_LLC_prefetch_issued 0
Core_0_LLC_prefetch_filled 0
Core_0_LLC_prefetch_useful 0
Core_0_LLC_prefetch_useless 0
Core_0_LLC_prefetch_late 0
Core_0_LLC_average_miss_latency 159.98644

Core_0_LLC_rq_access 1211716
Core_0_LLC_rq_forward 0
Core_0_LLC_rq_merged 0
Core_0_LLC_rq_to_cache 1211716
Core_0_LLC_rq_full 0

Core_0_LLC_wq_access 401768
Core_0_LLC_wq_forward 0
Core_0_LLC_wq_merged 0
Core_0_LLC_wq_to_cache 401768
Core_0_LLC_wq_full 0

Core_0_LLC_pq_access 0
Core_0_LLC_pq_forward 0
Core_0_LLC_pq_merged 0
Core_0_LLC_pq_to_cache 0
Core_0_LLC_pq_full 0

Core_0_LLC_acc_epochs 134725
Core_0_LLC_acc_level_0 134725
Core_0_LLC_acc_level_1 0
Core_0_LLC_acc_level_2 0
Core_0_LLC_acc_level_3 0
Core_0_LLC_acc_level_4 0
Core_0_LLC_acc_level_5 0
Core_0_LLC_acc_level_6 0
Core_0_LLC_acc_level_7 0
Core_0_LLC_acc_level_8 0
Core_0_LLC_acc_level_9 0

Core_0_major_page_fault 0
Core_0_minor_page_fault 19556

Channel_0_RQ_row_buffer_hit 153071
Channel_0_RQ_row_buffer_miss 1058052
Channel_0_WQ_row_buffer_hit 286212
Channel_0_WQ_row_buffer_miss 110741
Channel_0_WQ_full 0
Channel_0_dbus_congested 548464

avg_congested_cycle 10

DRAM_bw_pochs 538898
DRAM_bw_level_0 350846
DRAM_bw_level_1 187922
DRAM_bw_level_2 124
DRAM_bw_level_3 6
