*************************************************
   ChampSim Multicore Out-of-Order Simulator
   Last compiled: Apr  3 2025 20:54:34
*************************************************
parsing config file: /home/zir/Pythia/config/nopref.ini

trace_0 /home/zir/ChampSim/ML-DPC/ChampSimTraces/spec17/621.wrf-s3.trace.xz
adding L2C_PREFETCHER: NONE
Initialize SHIP state
warmup_instructions 10000000
simulation_instructions 50000000
champsim_seed 166
measure_ipc 0
measure_ipc_epoch 1000
measure_dram_bw 1
measure_dram_bw_epoch 256
measure_cache_acc 1
measure_cache_acc_epoch 1024
l1d_perfect 0
l2c_perfect 0
llc_perfect 0
l1d_semi_perfect 0
l2c_semi_perfect 0
llc_semi_perfect 0
semi_perfect_cache_page_buffer_size 64

num_cpus 1
cpu_freq 4000
dram_io_freq 2400
page_size 4096
block_size 64
max_read_per_cycle 8
max_fill_per_cycle 1
dram_channels 1
log2_dram_channels 0
dram_ranks 1
dram_banks 8
dram_rows 65536
dram_columns 128
dram_row_size 8
dram_size 4096
dram_pages 1048576

fetch_width 6
decode_width 6
exec_width 4
lq_width 2
sq_width 2
retire_width 4
scheduler_size 128
branch_mispredict_penalty 20
rob_size 256
lq_size 72
sq_size 56
num_instr_destinations_sparc 4
num_instr_destinations 2
num_instr_sources 4

itlb_set 16
itlb_way 8
itlb_rq_size 16
itlb_wq_size 16
itlb_pq_size 0
itlb_mshr_size 8
itlb_latency 1

dtlb_set 16
dtlb_way 4
dtlb_rq_size 16
dtlb_wq_size 16
dtlb_pq_size 0
dtlb_mshr_size 8
dtlb_latency 1

stlb_set 128
stlb_way 12
stlb_rq_size 32
stlb_wq_size 32
stlb_pq_size 0
stlb_mshr_size 16
stlb_latency 8

l1i_size 32
l1i_set 64
l1i_way 8
l1i_rq_size 64
l1i_wq_size 64
l1i_pq_size 8
l1i_mshr_size 8
l1i_latency 1

l1d_size 32
l1d_set 64
l1d_way 8
l1d_rq_size 64
l1d_wq_size 64
l1d_pq_size 8
l1d_mshr_size 16
l1d_latency 4

l2c_size 256
l2c_set 512
l2c_way 8
l2c_rq_size 32
l2c_wq_size 32
l2c_pq_size 32
l2c_mshr_size 32
l2c_latency 10

llc_size 2048
llc_set 2048
llc_way 16
llc_rq_size 32
llc_wq_size 32
llc_pq_size 32
llc_mshr_size 64
llc_latency 20

dram_channel_width 8
dram_wq_size 64
dram_rq_size 64
tRP 15
tRCD 15
tCAS 12.5
dram_dbus_turn_around_time 30
dram_write_high_wm 56
dram_write_low_wm 48
min_dram_writes_per_switch 16
dram_mtps 2400
dram_dbus_return_time 13


Heartbeat CPU  0 instructions:    1000003 cycles:     573411 heartbeat IPC: 1.74396 cumulative IPC: 1.74396 (Simulation time: 0 hr 0 min 1 sec) 
Heartbeat CPU  0 instructions:    2000000 cycles:    1116361 heartbeat IPC: 1.84178 cumulative IPC: 1.79154 (Simulation time: 0 hr 0 min 3 sec) 
Heartbeat CPU  0 instructions:    3000002 cycles:    1604268 heartbeat IPC: 2.04958 cumulative IPC: 1.87001 (Simulation time: 0 hr 0 min 4 sec) 
Heartbeat CPU  0 instructions:    4000000 cycles:    2179784 heartbeat IPC: 1.73757 cumulative IPC: 1.83504 (Simulation time: 0 hr 0 min 6 sec) 
Heartbeat CPU  0 instructions:    5000001 cycles:    2621461 heartbeat IPC: 2.26410 cumulative IPC: 1.90733 (Simulation time: 0 hr 0 min 7 sec) 
Heartbeat CPU  0 instructions:    6000000 cycles:    3165451 heartbeat IPC: 1.83827 cumulative IPC: 1.89546 (Simulation time: 0 hr 0 min 9 sec) 
Heartbeat CPU  0 instructions:    7000000 cycles:    3682546 heartbeat IPC: 1.93388 cumulative IPC: 1.90086 (Simulation time: 0 hr 0 min 10 sec) 
Heartbeat CPU  0 instructions:    8000000 cycles:    4258360 heartbeat IPC: 1.73667 cumulative IPC: 1.87866 (Simulation time: 0 hr 0 min 12 sec) 
Heartbeat CPU  0 instructions:    9000000 cycles:    4780221 heartbeat IPC: 1.91622 cumulative IPC: 1.88276 (Simulation time: 0 hr 0 min 13 sec) 
Heartbeat CPU  0 instructions:   10000002 cycles:    5274243 heartbeat IPC: 2.02421 cumulative IPC: 1.89601 (Simulation time: 0 hr 0 min 15 sec) 

Warmup complete CPU  0 instructions:   10000002 cycles:    5274243 (Simulation time: 0 hr 0 min 15 sec) 

Heartbeat CPU  0 instructions:   11000001 cycles:    6567532 heartbeat IPC: 0.77322 cumulative IPC: 0.77322 (Simulation time: 0 hr 0 min 16 sec) 
Heartbeat CPU  0 instructions:   12000000 cycles:    7599826 heartbeat IPC: 0.96872 cumulative IPC: 0.86000 (Simulation time: 0 hr 0 min 18 sec) 
Heartbeat CPU  0 instructions:   13000003 cycles:    9248860 heartbeat IPC: 0.60642 cumulative IPC: 0.75479 (Simulation time: 0 hr 0 min 20 sec) 
Heartbeat CPU  0 instructions:   14000000 cycles:   10697967 heartbeat IPC: 0.69008 cumulative IPC: 0.73750 (Simulation time: 0 hr 0 min 22 sec) 
Heartbeat CPU  0 instructions:   15000000 cycles:   12334232 heartbeat IPC: 0.61115 cumulative IPC: 0.70822 (Simulation time: 0 hr 0 min 24 sec) 
Heartbeat CPU  0 instructions:   16000000 cycles:   13554099 heartbeat IPC: 0.81976 cumulative IPC: 0.72465 (Simulation time: 0 hr 0 min 26 sec) 
Heartbeat CPU  0 instructions:   17000000 cycles:   15229461 heartbeat IPC: 0.59689 cumulative IPC: 0.70315 (Simulation time: 0 hr 0 min 28 sec) 
Heartbeat CPU  0 instructions:   18000002 cycles:   16155276 heartbeat IPC: 1.08013 cumulative IPC: 0.73522 (Simulation time: 0 hr 0 min 30 sec) 
Heartbeat CPU  0 instructions:   19000000 cycles:   17475337 heartbeat IPC: 0.75754 cumulative IPC: 0.73764 (Simulation time: 0 hr 0 min 31 sec) 
Heartbeat CPU  0 instructions:   20000000 cycles:   18910698 heartbeat IPC: 0.69669 cumulative IPC: 0.73333 (Simulation time: 0 hr 0 min 33 sec) 
Heartbeat CPU  0 instructions:   21000000 cycles:   20656449 heartbeat IPC: 0.57282 cumulative IPC: 0.71511 (Simulation time: 0 hr 0 min 35 sec) 
Heartbeat CPU  0 instructions:   22000000 cycles:   22105964 heartbeat IPC: 0.68989 cumulative IPC: 0.71294 (Simulation time: 0 hr 0 min 37 sec) 
Heartbeat CPU  0 instructions:   23000000 cycles:   23497971 heartbeat IPC: 0.71839 cumulative IPC: 0.71336 (Simulation time: 0 hr 0 min 39 sec) 
Heartbeat CPU  0 instructions:   24000000 cycles:   24811437 heartbeat IPC: 0.76134 cumulative IPC: 0.71658 (Simulation time: 0 hr 0 min 41 sec) 
Heartbeat CPU  0 instructions:   25000001 cycles:   25858984 heartbeat IPC: 0.95461 cumulative IPC: 0.72870 (Simulation time: 0 hr 0 min 43 sec) 
Heartbeat CPU  0 instructions:   26000001 cycles:   27523557 heartbeat IPC: 0.60075 cumulative IPC: 0.71912 (Simulation time: 0 hr 0 min 45 sec) 
Heartbeat CPU  0 instructions:   27000001 cycles:   28990865 heartbeat IPC: 0.68152 cumulative IPC: 0.71680 (Simulation time: 0 hr 0 min 47 sec) 
Heartbeat CPU  0 instructions:   28000000 cycles:   30633052 heartbeat IPC: 0.60894 cumulative IPC: 0.70981 (Simulation time: 0 hr 0 min 49 sec) 
Heartbeat CPU  0 instructions:   29000000 cycles:   31850258 heartbeat IPC: 0.82155 cumulative IPC: 0.71493 (Simulation time: 0 hr 0 min 51 sec) 
Heartbeat CPU  0 instructions:   30000001 cycles:   33530581 heartbeat IPC: 0.59512 cumulative IPC: 0.70781 (Simulation time: 0 hr 0 min 53 sec) 
Heartbeat CPU  0 instructions:   31000003 cycles:   34452942 heartbeat IPC: 1.08418 cumulative IPC: 0.71970 (Simulation time: 0 hr 0 min 54 sec) 
Heartbeat CPU  0 instructions:   32000000 cycles:   35679263 heartbeat IPC: 0.81544 cumulative IPC: 0.72356 (Simulation time: 0 hr 0 min 56 sec) 
Heartbeat CPU  0 instructions:   33000000 cycles:   37137369 heartbeat IPC: 0.68582 cumulative IPC: 0.72184 (Simulation time: 0 hr 0 min 58 sec) 
Heartbeat CPU  0 instructions:   34000000 cycles:   38893218 heartbeat IPC: 0.56953 cumulative IPC: 0.71388 (Simulation time: 0 hr 1 min 0 sec) 
Heartbeat CPU  0 instructions:   35000001 cycles:   40329890 heartbeat IPC: 0.69605 cumulative IPC: 0.71315 (Simulation time: 0 hr 1 min 2 sec) 
Heartbeat CPU  0 instructions:   36000000 cycles:   41741120 heartbeat IPC: 0.70860 cumulative IPC: 0.71298 (Simulation time: 0 hr 1 min 4 sec) 
Heartbeat CPU  0 instructions:   37000000 cycles:   43157134 heartbeat IPC: 0.70621 cumulative IPC: 0.71272 (Simulation time: 0 hr 1 min 6 sec) 
Heartbeat CPU  0 instructions:   38000000 cycles:   44158021 heartbeat IPC: 0.99911 cumulative IPC: 0.72009 (Simulation time: 0 hr 1 min 8 sec) 
Heartbeat CPU  0 instructions:   39000000 cycles:   45683194 heartbeat IPC: 0.65566 cumulative IPC: 0.71766 (Simulation time: 0 hr 1 min 10 sec) 
Heartbeat CPU  0 instructions:   40000000 cycles:   47129870 heartbeat IPC: 0.69124 cumulative IPC: 0.71675 (Simulation time: 0 hr 1 min 12 sec) 
Heartbeat CPU  0 instructions:   41000000 cycles:   48778766 heartbeat IPC: 0.60647 cumulative IPC: 0.71257 (Simulation time: 0 hr 1 min 14 sec) 
Heartbeat CPU  0 instructions:   42000002 cycles:   50178012 heartbeat IPC: 0.71467 cumulative IPC: 0.71264 (Simulation time: 0 hr 1 min 16 sec) 
Heartbeat CPU  0 instructions:   43000001 cycles:   51591638 heartbeat IPC: 0.70740 cumulative IPC: 0.71248 (Simulation time: 0 hr 1 min 18 sec) 
Heartbeat CPU  0 instructions:   44000000 cycles:   52800446 heartbeat IPC: 0.82726 cumulative IPC: 0.71539 (Simulation time: 0 hr 1 min 19 sec) 
Heartbeat CPU  0 instructions:   45000003 cycles:   53883095 heartbeat IPC: 0.92366 cumulative IPC: 0.72003 (Simulation time: 0 hr 1 min 21 sec) 
Heartbeat CPU  0 instructions:   46000000 cycles:   55558178 heartbeat IPC: 0.59698 cumulative IPC: 0.71593 (Simulation time: 0 hr 1 min 23 sec) 
Heartbeat CPU  0 instructions:   47000000 cycles:   57062370 heartbeat IPC: 0.66481 cumulative IPC: 0.71445 (Simulation time: 0 hr 1 min 25 sec) 
Heartbeat CPU  0 instructions:   48000000 cycles:   58690741 heartbeat IPC: 0.61411 cumulative IPC: 0.71139 (Simulation time: 0 hr 1 min 27 sec) 
Heartbeat CPU  0 instructions:   49000002 cycles:   59921661 heartbeat IPC: 0.81240 cumulative IPC: 0.71367 (Simulation time: 0 hr 1 min 29 sec) 
Heartbeat CPU  0 instructions:   50000000 cycles:   61598076 heartbeat IPC: 0.59651 cumulative IPC: 0.71018 (Simulation time: 0 hr 1 min 31 sec) 
Heartbeat CPU  0 instructions:   51000000 cycles:   62509250 heartbeat IPC: 1.09749 cumulative IPC: 0.71634 (Simulation time: 0 hr 1 min 33 sec) 
Heartbeat CPU  0 instructions:   52000000 cycles:   63732179 heartbeat IPC: 0.81771 cumulative IPC: 0.71847 (Simulation time: 0 hr 1 min 34 sec) 
Heartbeat CPU  0 instructions:   53000003 cycles:   65233044 heartbeat IPC: 0.66628 cumulative IPC: 0.71716 (Simulation time: 0 hr 1 min 36 sec) 
Heartbeat CPU  0 instructions:   54000001 cycles:   66971005 heartbeat IPC: 0.57539 cumulative IPC: 0.71317 (Simulation time: 0 hr 1 min 38 sec) 
Heartbeat CPU  0 instructions:   55000000 cycles:   68402874 heartbeat IPC: 0.69839 cumulative IPC: 0.71283 (Simulation time: 0 hr 1 min 40 sec) 
Heartbeat CPU  0 instructions:   56000000 cycles:   69829159 heartbeat IPC: 0.70112 cumulative IPC: 0.71257 (Simulation time: 0 hr 1 min 42 sec) 
Heartbeat CPU  0 instructions:   57000000 cycles:   71280322 heartbeat IPC: 0.68910 cumulative IPC: 0.71206 (Simulation time: 0 hr 1 min 44 sec) 
Heartbeat CPU  0 instructions:   58000001 cycles:   72274648 heartbeat IPC: 1.00571 cumulative IPC: 0.71641 (Simulation time: 0 hr 1 min 46 sec) 
Heartbeat CPU  0 instructions:   59000001 cycles:   73713127 heartbeat IPC: 0.69518 cumulative IPC: 0.71597 (Simulation time: 0 hr 1 min 48 sec) 
Heartbeat CPU  0 instructions:   60000000 cycles:   75139248 heartbeat IPC: 0.70120 cumulative IPC: 0.71567 (Simulation time: 0 hr 1 min 50 sec) 
Finished CPU 0 instructions: 50000003 cycles: 69865018 cumulative IPC: 0.71567 (Simulation time: 0 hr 1 min 50 sec) 

ChampSim completed all CPUs

[ROI Statistics]
Core_0_instructions 50000003
Core_0_cycles 69865018
Core_0_IPC 0.71567

Core_0_branch_prediction_accuracy 98.23520
Core_0_branch_MPKI 1.86084
Core_0_average_ROB_occupancy_at_mispredict 159.16632

Core_0_L1D_total_access 12294631
Core_0_L1D_total_hit 12074168
Core_0_L1D_total_miss 220463
Core_0_L1D_loads 8385882
Core_0_L1D_load_hit 8252493
Core_0_L1D_load_miss 133389
Core_0_L1D_RFOs 3908749
Core_0_L1D_RFO_hit 3821675
Core_0_L1D_RFO_miss 87074
Core_0_L1D_prefetches 0
Core_0_L1D_prefetch_hit 0
Core_0_L1D_prefetch_miss 0
Core_0_L1D_writebacks 0
Core_0_L1D_writeback_hit 0
Core_0_L1D_writeback_miss 0
Core_0_L1D_prefetch_requested 0
Core_0_L1D_prefetch_dropped 0
Core_0_L1D_prefetch_issued 0
Core_0_L1D_prefetch_filled 0
Core_0_L1D_prefetch_useful 0
Core_0_L1D_prefetch_useless 0
Core_0_L1D_prefetch_late 0
Core_0_L1D_average_miss_latency 30.72404

Core_0_L1D_rq_access 12017133
Core_0_L1D_rq_forward 0
Core_0_L1D_rq_merged 3581473
Core_0_L1D_rq_to_cache 8434946
Core_0_L1D_rq_full 0

Core_0_L1D_wq_access 4128853
Core_0_L1D_wq_forward 714
Core_0_L1D_wq_merged 55953
Core_0_L1D_wq_to_cache 4072900
Core_0_L1D_wq_full 0

Core_0_L1D_pq_access 0
Core_0_L1D_pq_forward 0
Core_0_L1D_pq_merged 0
Core_0_L1D_pq_to_cache 0
Core_0_L1D_pq_full 0

Core_0_L1D_acc_epochs 73363
Core_0_L1D_acc_level_0 73363
Core_0_L1D_acc_level_1 0
Core_0_L1D_acc_level_2 0
Core_0_L1D_acc_level_3 0
Core_0_L1D_acc_level_4 0
Core_0_L1D_acc_level_5 0
Core_0_L1D_acc_level_6 0
Core_0_L1D_acc_level_7 0
Core_0_L1D_acc_level_8 0
Core_0_L1D_acc_level_9 0

Core_0_L1I_total_access 14920967
Core_0_L1I_total_hit 14915801
Core_0_L1I_total_miss 5166
Core_0_L1I_loads 14920967
Core_0_L1I_load_hit 14915801
Core_0_L1I_load_miss 5166
Core_0_L1I_RFOs 0
Core_0_L1I_RFO_hit 0
Core_0_L1I_RFO_miss 0
Core_0_L1I_prefetches 0
Core_0_L1I_prefetch_hit 0
Core_0_L1I_prefetch_miss 0
Core_0_L1I_writebacks 0
Core_0_L1I_writeback_hit 0
Core_0_L1I_writeback_miss 0
Core_0_L1I_prefetch_requested 0
Core_0_L1I_prefetch_dropped 0
Core_0_L1I_prefetch_issued 0
Core_0_L1I_prefetch_filled 0
Core_0_L1I_prefetch_useful 0
Core_0_L1I_prefetch_useless 0
Core_0_L1I_prefetch_late 0
Core_0_L1I_average_miss_latency 41.03949

Core_0_L1I_rq_access 50000007
Core_0_L1I_rq_forward 0
Core_0_L1I_rq_merged 35072757
Core_0_L1I_rq_to_cache 14927250
Core_0_L1I_rq_full 0

Core_0_L1I_wq_access 0
Core_0_L1I_wq_forward 0
Core_0_L1I_wq_merged 0
Core_0_L1I_wq_to_cache 0
Core_0_L1I_wq_full 0

Core_0_L1I_pq_access 0
Core_0_L1I_pq_forward 0
Core_0_L1I_pq_merged 0
Core_0_L1I_pq_to_cache 0
Core_0_L1I_pq_full 0

Core_0_L1I_acc_epochs 73363
Core_0_L1I_acc_level_0 73363
Core_0_L1I_acc_level_1 0
Core_0_L1I_acc_level_2 0
Core_0_L1I_acc_level_3 0
Core_0_L1I_acc_level_4 0
Core_0_L1I_acc_level_5 0
Core_0_L1I_acc_level_6 0
Core_0_L1I_acc_level_7 0
Core_0_L1I_acc_level_8 0
Core_0_L1I_acc_level_9 0

Core_0_L2C_total_access 333685
Core_0_L2C_total_hit 244240
Core_0_L2C_total_miss 89445
Core_0_L2C_loads 138555
Core_0_L2C_load_hit 98649
Core_0_L2C_load_miss 39906
Core_0_L2C_RFOs 87074
Core_0_L2C_RFO_hit 37566
Core_0_L2C_RFO_miss 49508
Core_0_L2C_prefetches 0
Core_0_L2C_prefetch_hit 0
Core_0_L2C_prefetch_miss 0
Core_0_L2C_writebacks 108056
Core_0_L2C_writeback_hit 108025
Core_0_L2C_writeback_miss 31
Core_0_L2C_prefetch_requested 0
Core_0_L2C_prefetch_dropped 0
Core_0_L2C_prefetch_issued 0
Core_0_L2C_prefetch_filled 0
Core_0_L2C_prefetch_useful 0
Core_0_L2C_prefetch_useless 0
Core_0_L2C_prefetch_late 0
Core_0_L2C_average_miss_latency 42.73453

Core_0_L2C_rq_access 225629
Core_0_L2C_rq_forward 0
Core_0_L2C_rq_merged 0
Core_0_L2C_rq_to_cache 225629
Core_0_L2C_rq_full 0

Core_0_L2C_wq_access 108056
Core_0_L2C_wq_forward 0
Core_0_L2C_wq_merged 0
Core_0_L2C_wq_to_cache 108056
Core_0_L2C_wq_full 0

Core_0_L2C_pq_access 0
Core_0_L2C_pq_forward 0
Core_0_L2C_pq_merged 0
Core_0_L2C_pq_to_cache 0
Core_0_L2C_pq_full 0

Core_0_L2C_acc_epochs 73363
Core_0_L2C_acc_level_0 73363
Core_0_L2C_acc_level_1 0
Core_0_L2C_acc_level_2 0
Core_0_L2C_acc_level_3 0
Core_0_L2C_acc_level_4 0
Core_0_L2C_acc_level_5 0
Core_0_L2C_acc_level_6 0
Core_0_L2C_acc_level_7 0
Core_0_L2C_acc_level_8 0
Core_0_L2C_acc_level_9 0

Core_0_LLC_total_access 148570
Core_0_LLC_total_hit 138474
Core_0_LLC_total_miss 10096
Core_0_LLC_loads 39905
Core_0_LLC_load_hit 29921
Core_0_LLC_load_miss 9984
Core_0_LLC_RFOs 49508
Core_0_LLC_RFO_hit 49396
Core_0_LLC_RFO_miss 112
Core_0_LLC_prefetches 0
Core_0_LLC_prefetch_hit 0
Core_0_LLC_prefetch_miss 0
Core_0_LLC_writebacks 59157
Core_0_LLC_writeback_hit 59157
Core_0_LLC_writeback_miss 0
Core_0_LLC_prefetch_requested 0
Core_0_LLC_prefetch_dropped 0
Core_0_LLC_prefetch_issued 0
Core_0_LLC_prefetch_filled 0
Core_0_LLC_prefetch_useful 0
Core_0_LLC_prefetch_useless 0
Core_0_LLC_prefetch_late 0
Core_0_LLC_average_miss_latency 112.20751

Core_0_LLC_rq_access 89414
Core_0_LLC_rq_forward 0
Core_0_LLC_rq_merged 0
Core_0_LLC_rq_to_cache 89413
Core_0_LLC_rq_full 0

Core_0_LLC_wq_access 59157
Core_0_LLC_wq_forward 1
Core_0_LLC_wq_merged 0
Core_0_LLC_wq_to_cache 59157
Core_0_LLC_wq_full 0

Core_0_LLC_pq_access 0
Core_0_LLC_pq_forward 0
Core_0_LLC_pq_merged 0
Core_0_LLC_pq_to_cache 0
Core_0_LLC_pq_full 0

Core_0_LLC_acc_epochs 73379
Core_0_LLC_acc_level_0 73379
Core_0_LLC_acc_level_1 0
Core_0_LLC_acc_level_2 0
Core_0_LLC_acc_level_3 0
Core_0_LLC_acc_level_4 0
Core_0_LLC_acc_level_5 0
Core_0_LLC_acc_level_6 0
Core_0_LLC_acc_level_7 0
Core_0_LLC_acc_level_8 0
Core_0_LLC_acc_level_9 0

Core_0_major_page_fault 0
Core_0_minor_page_fault 405

Channel_0_RQ_row_buffer_hit 7831
Channel_0_RQ_row_buffer_miss 2265
Channel_0_WQ_row_buffer_hit 0
Channel_0_WQ_row_buffer_miss 0
Channel_0_WQ_full 0
Channel_0_dbus_congested 4366

avg_congested_cycle 9

DRAM_bw_pochs 293513
DRAM_bw_level_0 291817
DRAM_bw_level_1 1319
DRAM_bw_level_2 368
DRAM_bw_level_3 9
