*************************************************
   ChampSim Multicore Out-of-Order Simulator
   Last compiled: Apr  3 2025 20:54:34
*************************************************
parsing config file: /home/zir/Pythia/config/nopref.ini

trace_0 /home/zir/ChampSim/ML-DPC/ChampSimTraces/spec06/410.bwaves-s1.trace.gz
adding L2C_PREFETCHER: NONE
Initialize SHIP state
warmup_instructions 10000000
simulation_instructions 50000000
champsim_seed 164
measure_ipc 0
measure_ipc_epoch 1000
measure_dram_bw 1
measure_dram_bw_epoch 256
measure_cache_acc 1
measure_cache_acc_epoch 1024
l1d_perfect 0
l2c_perfect 0
llc_perfect 0
l1d_semi_perfect 0
l2c_semi_perfect 0
llc_semi_perfect 0
semi_perfect_cache_page_buffer_size 64

num_cpus 1
cpu_freq 4000
dram_io_freq 2400
page_size 4096
block_size 64
max_read_per_cycle 8
max_fill_per_cycle 1
dram_channels 1
log2_dram_channels 0
dram_ranks 1
dram_banks 8
dram_rows 65536
dram_columns 128
dram_row_size 8
dram_size 4096
dram_pages 1048576

fetch_width 6
decode_width 6
exec_width 4
lq_width 2
sq_width 2
retire_width 4
scheduler_size 128
branch_mispredict_penalty 20
rob_size 256
lq_size 72
sq_size 56
num_instr_destinations_sparc 4
num_instr_destinations 2
num_instr_sources 4

itlb_set 16
itlb_way 8
itlb_rq_size 16
itlb_wq_size 16
itlb_pq_size 0
itlb_mshr_size 8
itlb_latency 1

dtlb_set 16
dtlb_way 4
dtlb_rq_size 16
dtlb_wq_size 16
dtlb_pq_size 0
dtlb_mshr_size 8
dtlb_latency 1

stlb_set 128
stlb_way 12
stlb_rq_size 32
stlb_wq_size 32
stlb_pq_size 0
stlb_mshr_size 16
stlb_latency 8

l1i_size 32
l1i_set 64
l1i_way 8
l1i_rq_size 64
l1i_wq_size 64
l1i_pq_size 8
l1i_mshr_size 8
l1i_latency 1

l1d_size 32
l1d_set 64
l1d_way 8
l1d_rq_size 64
l1d_wq_size 64
l1d_pq_size 8
l1d_mshr_size 16
l1d_latency 4

l2c_size 256
l2c_set 512
l2c_way 8
l2c_rq_size 32
l2c_wq_size 32
l2c_pq_size 32
l2c_mshr_size 32
l2c_latency 10

llc_size 2048
llc_set 2048
llc_way 16
llc_rq_size 32
llc_wq_size 32
llc_pq_size 32
llc_mshr_size 64
llc_latency 20

dram_channel_width 8
dram_wq_size 64
dram_rq_size 64
tRP 15
tRCD 15
tCAS 12.5
dram_dbus_turn_around_time 30
dram_write_high_wm 56
dram_write_low_wm 48
min_dram_writes_per_switch 16
dram_mtps 2400
dram_dbus_return_time 13


Heartbeat CPU  0 instructions:    1000002 cycles:     625846 heartbeat IPC: 1.59784 cumulative IPC: 1.59784 (Simulation time: 0 hr 0 min 2 sec) 
Heartbeat CPU  0 instructions:    2000002 cycles:    1249836 heartbeat IPC: 1.60259 cumulative IPC: 1.60021 (Simulation time: 0 hr 0 min 4 sec) 
Heartbeat CPU  0 instructions:    3000000 cycles:    1873775 heartbeat IPC: 1.60272 cumulative IPC: 1.60105 (Simulation time: 0 hr 0 min 6 sec) 
Heartbeat CPU  0 instructions:    4000000 cycles:    2497695 heartbeat IPC: 1.60277 cumulative IPC: 1.60148 (Simulation time: 0 hr 0 min 8 sec) 
Heartbeat CPU  0 instructions:    5000003 cycles:    3121549 heartbeat IPC: 1.60294 cumulative IPC: 1.60177 (Simulation time: 0 hr 0 min 10 sec) 
Heartbeat CPU  0 instructions:    6000001 cycles:    3745616 heartbeat IPC: 1.60239 cumulative IPC: 1.60187 (Simulation time: 0 hr 0 min 12 sec) 
Heartbeat CPU  0 instructions:    7000000 cycles:    4369619 heartbeat IPC: 1.60255 cumulative IPC: 1.60197 (Simulation time: 0 hr 0 min 14 sec) 
Heartbeat CPU  0 instructions:    8000000 cycles:    4993616 heartbeat IPC: 1.60257 cumulative IPC: 1.60205 (Simulation time: 0 hr 0 min 16 sec) 
Heartbeat CPU  0 instructions:    9000000 cycles:    5617572 heartbeat IPC: 1.60268 cumulative IPC: 1.60212 (Simulation time: 0 hr 0 min 18 sec) 
Heartbeat CPU  0 instructions:   10000002 cycles:    6241542 heartbeat IPC: 1.60264 cumulative IPC: 1.60217 (Simulation time: 0 hr 0 min 20 sec) 

Warmup complete CPU  0 instructions:   10000002 cycles:    6241542 (Simulation time: 0 hr 0 min 20 sec) 

Heartbeat CPU  0 instructions:   11000000 cycles:    7959984 heartbeat IPC: 0.58192 cumulative IPC: 0.58192 (Simulation time: 0 hr 0 min 22 sec) 
Heartbeat CPU  0 instructions:   12000000 cycles:    9696323 heartbeat IPC: 0.57592 cumulative IPC: 0.57891 (Simulation time: 0 hr 0 min 25 sec) 
Heartbeat CPU  0 instructions:   13000001 cycles:   11447735 heartbeat IPC: 0.57097 cumulative IPC: 0.57624 (Simulation time: 0 hr 0 min 27 sec) 
Heartbeat CPU  0 instructions:   14000000 cycles:   13186109 heartbeat IPC: 0.57525 cumulative IPC: 0.57599 (Simulation time: 0 hr 0 min 30 sec) 
Heartbeat CPU  0 instructions:   15000000 cycles:   14946573 heartbeat IPC: 0.56803 cumulative IPC: 0.57438 (Simulation time: 0 hr 0 min 33 sec) 
Heartbeat CPU  0 instructions:   16000000 cycles:   16700713 heartbeat IPC: 0.57008 cumulative IPC: 0.57366 (Simulation time: 0 hr 0 min 35 sec) 
Heartbeat CPU  0 instructions:   17000001 cycles:   18434702 heartbeat IPC: 0.57671 cumulative IPC: 0.57409 (Simulation time: 0 hr 0 min 38 sec) 
Heartbeat CPU  0 instructions:   18000000 cycles:   20181049 heartbeat IPC: 0.57262 cumulative IPC: 0.57391 (Simulation time: 0 hr 0 min 40 sec) 
Heartbeat CPU  0 instructions:   19000002 cycles:   21914642 heartbeat IPC: 0.57684 cumulative IPC: 0.57423 (Simulation time: 0 hr 0 min 43 sec) 
Heartbeat CPU  0 instructions:   20000000 cycles:   23677943 heartbeat IPC: 0.56712 cumulative IPC: 0.57351 (Simulation time: 0 hr 0 min 45 sec) 
Heartbeat CPU  0 instructions:   21000001 cycles:   25415559 heartbeat IPC: 0.57550 cumulative IPC: 0.57369 (Simulation time: 0 hr 0 min 48 sec) 
Heartbeat CPU  0 instructions:   22000003 cycles:   27149413 heartbeat IPC: 0.57675 cumulative IPC: 0.57395 (Simulation time: 0 hr 0 min 51 sec) 
Heartbeat CPU  0 instructions:   23000000 cycles:   28898346 heartbeat IPC: 0.57178 cumulative IPC: 0.57378 (Simulation time: 0 hr 0 min 53 sec) 
Heartbeat CPU  0 instructions:   24000000 cycles:   30656681 heartbeat IPC: 0.56872 cumulative IPC: 0.57341 (Simulation time: 0 hr 0 min 56 sec) 
Heartbeat CPU  0 instructions:   25000000 cycles:   32406196 heartbeat IPC: 0.57159 cumulative IPC: 0.57329 (Simulation time: 0 hr 0 min 58 sec) 
Heartbeat CPU  0 instructions:   26000001 cycles:   34165585 heartbeat IPC: 0.56838 cumulative IPC: 0.57298 (Simulation time: 0 hr 1 min 1 sec) 
Heartbeat CPU  0 instructions:   27000001 cycles:   35901535 heartbeat IPC: 0.57605 cumulative IPC: 0.57316 (Simulation time: 0 hr 1 min 3 sec) 
Heartbeat CPU  0 instructions:   28000000 cycles:   37648827 heartbeat IPC: 0.57231 cumulative IPC: 0.57312 (Simulation time: 0 hr 1 min 6 sec) 
Heartbeat CPU  0 instructions:   29000000 cycles:   39390736 heartbeat IPC: 0.57408 cumulative IPC: 0.57317 (Simulation time: 0 hr 1 min 9 sec) 
Heartbeat CPU  0 instructions:   30000002 cycles:   41127452 heartbeat IPC: 0.57580 cumulative IPC: 0.57330 (Simulation time: 0 hr 1 min 11 sec) 
Heartbeat CPU  0 instructions:   31000001 cycles:   42887635 heartbeat IPC: 0.56812 cumulative IPC: 0.57305 (Simulation time: 0 hr 1 min 14 sec) 
Heartbeat CPU  0 instructions:   32000000 cycles:   44642468 heartbeat IPC: 0.56985 cumulative IPC: 0.57290 (Simulation time: 0 hr 1 min 16 sec) 
Heartbeat CPU  0 instructions:   33000000 cycles:   46375013 heartbeat IPC: 0.57719 cumulative IPC: 0.57309 (Simulation time: 0 hr 1 min 19 sec) 
Heartbeat CPU  0 instructions:   34000002 cycles:   48120434 heartbeat IPC: 0.57293 cumulative IPC: 0.57308 (Simulation time: 0 hr 1 min 21 sec) 
Heartbeat CPU  0 instructions:   35000002 cycles:   49879386 heartbeat IPC: 0.56852 cumulative IPC: 0.57290 (Simulation time: 0 hr 1 min 24 sec) 
Heartbeat CPU  0 instructions:   36000000 cycles:   51645761 heartbeat IPC: 0.56613 cumulative IPC: 0.57263 (Simulation time: 0 hr 1 min 26 sec) 
Heartbeat CPU  0 instructions:   37000001 cycles:   53405640 heartbeat IPC: 0.56822 cumulative IPC: 0.57247 (Simulation time: 0 hr 1 min 29 sec) 
Heartbeat CPU  0 instructions:   38000003 cycles:   55154398 heartbeat IPC: 0.57184 cumulative IPC: 0.57245 (Simulation time: 0 hr 1 min 32 sec) 
Heartbeat CPU  0 instructions:   39000000 cycles:   56899622 heartbeat IPC: 0.57299 cumulative IPC: 0.57247 (Simulation time: 0 hr 1 min 34 sec) 
Heartbeat CPU  0 instructions:   40000000 cycles:   58638116 heartbeat IPC: 0.57521 cumulative IPC: 0.57256 (Simulation time: 0 hr 1 min 37 sec) 
Heartbeat CPU  0 instructions:   41000000 cycles:   60376520 heartbeat IPC: 0.57524 cumulative IPC: 0.57264 (Simulation time: 0 hr 1 min 39 sec) 
Heartbeat CPU  0 instructions:   42000001 cycles:   62166157 heartbeat IPC: 0.55877 cumulative IPC: 0.57220 (Simulation time: 0 hr 1 min 42 sec) 
Heartbeat CPU  0 instructions:   43000001 cycles:   63943286 heartbeat IPC: 0.56271 cumulative IPC: 0.57191 (Simulation time: 0 hr 1 min 44 sec) 
Heartbeat CPU  0 instructions:   44000000 cycles:   65712872 heartbeat IPC: 0.56510 cumulative IPC: 0.57170 (Simulation time: 0 hr 1 min 47 sec) 
Heartbeat CPU  0 instructions:   45000001 cycles:   67457930 heartbeat IPC: 0.57305 cumulative IPC: 0.57174 (Simulation time: 0 hr 1 min 50 sec) 
Heartbeat CPU  0 instructions:   46000000 cycles:   69217088 heartbeat IPC: 0.56845 cumulative IPC: 0.57165 (Simulation time: 0 hr 1 min 52 sec) 
Heartbeat CPU  0 instructions:   47000001 cycles:   70973585 heartbeat IPC: 0.56932 cumulative IPC: 0.57159 (Simulation time: 0 hr 1 min 55 sec) 
Heartbeat CPU  0 instructions:   48000000 cycles:   72759121 heartbeat IPC: 0.56006 cumulative IPC: 0.57128 (Simulation time: 0 hr 1 min 57 sec) 
Heartbeat CPU  0 instructions:   49000003 cycles:   74546194 heartbeat IPC: 0.55958 cumulative IPC: 0.57097 (Simulation time: 0 hr 2 min 0 sec) 
Heartbeat CPU  0 instructions:   50000000 cycles:   76318610 heartbeat IPC: 0.56420 cumulative IPC: 0.57080 (Simulation time: 0 hr 2 min 2 sec) 
Heartbeat CPU  0 instructions:   51000000 cycles:   78065706 heartbeat IPC: 0.57238 cumulative IPC: 0.57084 (Simulation time: 0 hr 2 min 5 sec) 
Heartbeat CPU  0 instructions:   52000000 cycles:   79817896 heartbeat IPC: 0.57071 cumulative IPC: 0.57084 (Simulation time: 0 hr 2 min 8 sec) 
Heartbeat CPU  0 instructions:   53000003 cycles:   81609546 heartbeat IPC: 0.55815 cumulative IPC: 0.57053 (Simulation time: 0 hr 2 min 10 sec) 
Heartbeat CPU  0 instructions:   54000001 cycles:   83345755 heartbeat IPC: 0.57597 cumulative IPC: 0.57066 (Simulation time: 0 hr 2 min 13 sec) 
Heartbeat CPU  0 instructions:   55000001 cycles:   85129497 heartbeat IPC: 0.56062 cumulative IPC: 0.57043 (Simulation time: 0 hr 2 min 15 sec) 
Heartbeat CPU  0 instructions:   56000000 cycles:   86901011 heartbeat IPC: 0.56449 cumulative IPC: 0.57030 (Simulation time: 0 hr 2 min 18 sec) 
Heartbeat CPU  0 instructions:   57000001 cycles:   88657766 heartbeat IPC: 0.56923 cumulative IPC: 0.57028 (Simulation time: 0 hr 2 min 21 sec) 
Heartbeat CPU  0 instructions:   58000000 cycles:   90414100 heartbeat IPC: 0.56937 cumulative IPC: 0.57026 (Simulation time: 0 hr 2 min 23 sec) 
Heartbeat CPU  0 instructions:   59000003 cycles:   92188672 heartbeat IPC: 0.56352 cumulative IPC: 0.57012 (Simulation time: 0 hr 2 min 26 sec) 
Heartbeat CPU  0 instructions:   60000000 cycles:   93954481 heartbeat IPC: 0.56631 cumulative IPC: 0.57004 (Simulation time: 0 hr 2 min 28 sec) 
Finished CPU 0 instructions: 50000000 cycles: 87713082 cumulative IPC: 0.57004 (Simulation time: 0 hr 2 min 28 sec) 

ChampSim completed all CPUs

[ROI Statistics]
Core_0_instructions 50000000
Core_0_cycles 87713082
Core_0_IPC 0.57004

Core_0_branch_prediction_accuracy 99.94993
Core_0_branch_MPKI 0.01498
Core_0_average_ROB_occupancy_at_mispredict 248.48732

Core_0_L1D_total_access 19945746
Core_0_L1D_total_hit 18734312
Core_0_L1D_total_miss 1211434
Core_0_L1D_loads 18555906
Core_0_L1D_load_hit 17375393
Core_0_L1D_load_miss 1180513
Core_0_L1D_RFOs 1389840
Core_0_L1D_RFO_hit 1358919
Core_0_L1D_RFO_miss 30921
Core_0_L1D_prefetches 0
Core_0_L1D_prefetch_hit 0
Core_0_L1D_prefetch_miss 0
Core_0_L1D_writebacks 0
Core_0_L1D_writeback_hit 0
Core_0_L1D_writeback_miss 0
Core_0_L1D_prefetch_requested 0
Core_0_L1D_prefetch_dropped 0
Core_0_L1D_prefetch_issued 0
Core_0_L1D_prefetch_filled 0
Core_0_L1D_prefetch_useful 0
Core_0_L1D_prefetch_useless 0
Core_0_L1D_prefetch_late 0
Core_0_L1D_average_miss_latency 304.52419

Core_0_L1D_rq_access 26135329
Core_0_L1D_rq_forward 0
Core_0_L1D_rq_merged 7262315
Core_0_L1D_rq_to_cache 18873014
Core_0_L1D_rq_full 0

Core_0_L1D_wq_access 1408345
Core_0_L1D_wq_forward 0
Core_0_L1D_wq_merged 0
Core_0_L1D_wq_to_cache 1408345
Core_0_L1D_wq_full 0

Core_0_L1D_pq_access 0
Core_0_L1D_pq_forward 0
Core_0_L1D_pq_merged 0
Core_0_L1D_pq_to_cache 0
Core_0_L1D_pq_full 0

Core_0_L1D_acc_epochs 90082
Core_0_L1D_acc_level_0 90082
Core_0_L1D_acc_level_1 0
Core_0_L1D_acc_level_2 0
Core_0_L1D_acc_level_3 0
Core_0_L1D_acc_level_4 0
Core_0_L1D_acc_level_5 0
Core_0_L1D_acc_level_6 0
Core_0_L1D_acc_level_7 0
Core_0_L1D_acc_level_8 0
Core_0_L1D_acc_level_9 0

Core_0_L1I_total_access 14148461
Core_0_L1I_total_hit 14148461
Core_0_L1I_total_miss 0
Core_0_L1I_loads 14148461
Core_0_L1I_load_hit 14148461
Core_0_L1I_load_miss 0
Core_0_L1I_RFOs 0
Core_0_L1I_RFO_hit 0
Core_0_L1I_RFO_miss 0
Core_0_L1I_prefetches 0
Core_0_L1I_prefetch_hit 0
Core_0_L1I_prefetch_miss 0
Core_0_L1I_writebacks 0
Core_0_L1I_writeback_hit 0
Core_0_L1I_writeback_miss 0
Core_0_L1I_prefetch_requested 0
Core_0_L1I_prefetch_dropped 0
Core_0_L1I_prefetch_issued 0
Core_0_L1I_prefetch_filled 0
Core_0_L1I_prefetch_useful 0
Core_0_L1I_prefetch_useless 0
Core_0_L1I_prefetch_late 0
Core_0_L1I_average_miss_latency -nan

Core_0_L1I_rq_access 50000007
Core_0_L1I_rq_forward 0
Core_0_L1I_rq_merged 35851546
Core_0_L1I_rq_to_cache 14148461
Core_0_L1I_rq_full 0

Core_0_L1I_wq_access 0
Core_0_L1I_wq_forward 0
Core_0_L1I_wq_merged 0
Core_0_L1I_wq_to_cache 0
Core_0_L1I_wq_full 0

Core_0_L1I_pq_access 0
Core_0_L1I_pq_forward 0
Core_0_L1I_pq_merged 0
Core_0_L1I_pq_to_cache 0
Core_0_L1I_pq_full 0

Core_0_L1I_acc_epochs 90082
Core_0_L1I_acc_level_0 90082
Core_0_L1I_acc_level_1 0
Core_0_L1I_acc_level_2 0
Core_0_L1I_acc_level_3 0
Core_0_L1I_acc_level_4 0
Core_0_L1I_acc_level_5 0
Core_0_L1I_acc_level_6 0
Core_0_L1I_acc_level_7 0
Core_0_L1I_acc_level_8 0
Core_0_L1I_acc_level_9 0

Core_0_L2C_total_access 1244543
Core_0_L2C_total_hit 105893
Core_0_L2C_total_miss 1138650
Core_0_L2C_loads 1180427
Core_0_L2C_load_hit 71242
Core_0_L2C_load_miss 1109185
Core_0_L2C_RFOs 30848
Core_0_L2C_RFO_hit 1659
Core_0_L2C_RFO_miss 29189
Core_0_L2C_prefetches 0
Core_0_L2C_prefetch_hit 0
Core_0_L2C_prefetch_miss 0
Core_0_L2C_writebacks 33268
Core_0_L2C_writeback_hit 32992
Core_0_L2C_writeback_miss 276
Core_0_L2C_prefetch_requested 0
Core_0_L2C_prefetch_dropped 0
Core_0_L2C_prefetch_issued 0
Core_0_L2C_prefetch_filled 0
Core_0_L2C_prefetch_useful 0
Core_0_L2C_prefetch_useless 0
Core_0_L2C_prefetch_late 0
Core_0_L2C_average_miss_latency 307.26034

Core_0_L2C_rq_access 1211437
Core_0_L2C_rq_forward 0
Core_0_L2C_rq_merged 0
Core_0_L2C_rq_to_cache 1211278
Core_0_L2C_rq_full 0

Core_0_L2C_wq_access 33268
Core_0_L2C_wq_forward 159
Core_0_L2C_wq_merged 0
Core_0_L2C_wq_to_cache 33268
Core_0_L2C_wq_full 0

Core_0_L2C_pq_access 0
Core_0_L2C_pq_forward 0
Core_0_L2C_pq_merged 0
Core_0_L2C_pq_to_cache 0
Core_0_L2C_pq_full 0

Core_0_L2C_acc_epochs 90082
Core_0_L2C_acc_level_0 90082
Core_0_L2C_acc_level_1 0
Core_0_L2C_acc_level_2 0
Core_0_L2C_acc_level_3 0
Core_0_L2C_acc_level_4 0
Core_0_L2C_acc_level_5 0
Core_0_L2C_acc_level_6 0
Core_0_L2C_acc_level_7 0
Core_0_L2C_acc_level_8 0
Core_0_L2C_acc_level_9 0

Core_0_LLC_total_access 1167833
Core_0_LLC_total_hit 651
Core_0_LLC_total_miss 1167182
Core_0_LLC_loads 1109185
Core_0_LLC_load_hit 299
Core_0_LLC_load_miss 1108886
Core_0_LLC_RFOs 29189
Core_0_LLC_RFO_hit 0
Core_0_LLC_RFO_miss 29189
Core_0_LLC_prefetches 0
Core_0_LLC_prefetch_hit 0
Core_0_LLC_prefetch_miss 0
Core_0_LLC_writebacks 29459
Core_0_LLC_writeback_hit 352
Core_0_LLC_writeback_miss 29107
Core_0_LLC_prefetch_requested 0
Core_0_LLC_prefetch_dropped 0
Core_0_LLC_prefetch_issued 0
Core_0_LLC_prefetch_filled 0
Core_0_LLC_prefetch_useful 0
Core_0_LLC_prefetch_useless 0
Core_0_LLC_prefetch_late 0
Core_0_LLC_average_miss_latency 269.81204

Core_0_LLC_rq_access 1138377
Core_0_LLC_rq_forward 0
Core_0_LLC_rq_merged 0
Core_0_LLC_rq_to_cache 1138377
Core_0_LLC_rq_full 0

Core_0_LLC_wq_access 29459
Core_0_LLC_wq_forward 0
Core_0_LLC_wq_merged 0
Core_0_LLC_wq_to_cache 29459
Core_0_LLC_wq_full 0

Core_0_LLC_pq_access 0
Core_0_LLC_pq_forward 0
Core_0_LLC_pq_merged 0
Core_0_LLC_pq_to_cache 0
Core_0_LLC_pq_full 0

Core_0_LLC_acc_epochs 91753
Core_0_LLC_acc_level_0 91753
Core_0_LLC_acc_level_1 0
Core_0_LLC_acc_level_2 0
Core_0_LLC_acc_level_3 0
Core_0_LLC_acc_level_4 0
Core_0_LLC_acc_level_5 0
Core_0_LLC_acc_level_6 0
Core_0_LLC_acc_level_7 0
Core_0_LLC_acc_level_8 0
Core_0_LLC_acc_level_9 0

Core_0_major_page_fault 0
Core_0_minor_page_fault 20347

Channel_0_RQ_row_buffer_hit 889162
Channel_0_RQ_row_buffer_miss 248913
Channel_0_WQ_row_buffer_hit 984
Channel_0_WQ_row_buffer_miss 6041
Channel_0_WQ_full 0
Channel_0_dbus_congested 83640

avg_congested_cycle 6

DRAM_bw_pochs 367011
DRAM_bw_level_0 198669
DRAM_bw_level_1 98406
DRAM_bw_level_2 35360
DRAM_bw_level_3 34576
