*************************************************
   ChampSim Multicore Out-of-Order Simulator
   Last compiled: Apr  3 2025 20:54:34
*************************************************
parsing config file: /home/zir/Pythia/config/pythia.ini

trace_0 /home/zir/ChampSim/ML-DPC/ChampSimTraces/spec17/649.fotonik3d-s4.trace.xz
adding L2C_PREFETCHER: Scooby
Initialize SHIP state
warmup_instructions 10000000
simulation_instructions 50000000
champsim_seed 167
measure_ipc 0
measure_ipc_epoch 1000
measure_dram_bw 1
measure_dram_bw_epoch 256
measure_cache_acc 1
measure_cache_acc_epoch 1024
l1d_perfect 0
l2c_perfect 0
llc_perfect 0
l1d_semi_perfect 0
l2c_semi_perfect 0
llc_semi_perfect 0
semi_perfect_cache_page_buffer_size 64

num_cpus 1
cpu_freq 4000
dram_io_freq 2400
page_size 4096
block_size 64
max_read_per_cycle 8
max_fill_per_cycle 1
dram_channels 1
log2_dram_channels 0
dram_ranks 1
dram_banks 8
dram_rows 65536
dram_columns 128
dram_row_size 8
dram_size 4096
dram_pages 1048576

fetch_width 6
decode_width 6
exec_width 4
lq_width 2
sq_width 2
retire_width 4
scheduler_size 128
branch_mispredict_penalty 20
rob_size 256
lq_size 72
sq_size 56
num_instr_destinations_sparc 4
num_instr_destinations 2
num_instr_sources 4

itlb_set 16
itlb_way 8
itlb_rq_size 16
itlb_wq_size 16
itlb_pq_size 0
itlb_mshr_size 8
itlb_latency 1

dtlb_set 16
dtlb_way 4
dtlb_rq_size 16
dtlb_wq_size 16
dtlb_pq_size 0
dtlb_mshr_size 8
dtlb_latency 1

stlb_set 128
stlb_way 12
stlb_rq_size 32
stlb_wq_size 32
stlb_pq_size 0
stlb_mshr_size 16
stlb_latency 8

l1i_size 32
l1i_set 64
l1i_way 8
l1i_rq_size 64
l1i_wq_size 64
l1i_pq_size 8
l1i_mshr_size 8
l1i_latency 1

l1d_size 32
l1d_set 64
l1d_way 8
l1d_rq_size 64
l1d_wq_size 64
l1d_pq_size 8
l1d_mshr_size 16
l1d_latency 4

l2c_size 256
l2c_set 512
l2c_way 8
l2c_rq_size 32
l2c_wq_size 32
l2c_pq_size 32
l2c_mshr_size 32
l2c_latency 10

llc_size 2048
llc_set 2048
llc_way 16
llc_rq_size 32
llc_wq_size 32
llc_pq_size 32
llc_mshr_size 64
llc_latency 20

dram_channel_width 8
dram_wq_size 64
dram_rq_size 64
tRP 15
tRCD 15
tCAS 12.5
dram_dbus_turn_around_time 30
dram_write_high_wm 56
dram_write_low_wm 48
min_dram_writes_per_switch 16
dram_mtps 2400
dram_dbus_return_time 13

scooby_alpha 0.0065088
scooby_gamma 0.556301
scooby_epsilon 0.00182284
scooby_state_num_bits 10
scooby_max_states 1024
scooby_seed 200
scooby_policy EGreedy
scooby_learning_type SARSA
scooby_actions 1,3,4,5,10,11,12,22,23,30,32,-1,-3,-6,0,
scooby_max_actions 15
scooby_pt_size 256
scooby_st_size 64
scooby_max_pcs 5
scooby_max_offsets 5
scooby_max_deltas 5
scooby_reward_none -4
scooby_reward_incorrect -8
scooby_reward_correct_untimely 12
scooby_reward_correct_timely 20
scooby_brain_zero_init 0
scooby_enable_reward_all 0
scooby_enable_track_multiple 0
scooby_enable_reward_out_of_bounds 1
scooby_reward_out_of_bounds -12
scooby_state_type 1
scooby_state_hash_type 11
scooby_access_debug 0
scooby_print_access_debug 0
scooby_print_access_debug_pc deadbeef
scooby_print_access_debug_pc_count 0
scooby_print_trace 0
scooby_enable_state_action_stats 1
scooby_enable_reward_tracker_hit 0
scooby_reward_tracker_hit -2
scooby_enable_featurewise_engine 1
scooby_pref_degree 1
scooby_enable_dyn_degree 1
scooby_max_to_avg_q_thresholds 0.5,1,2,
scooby_dyn_degrees 1,2,4,4,
scooby_multi_deg_select_type 2
scooby_last_pref_offset_conf_thresholds 1,3,8,
scooby_dyn_degrees_type2 1,2,4,6,
scooby_action_tracker_size 2
scooby_high_bw_thresh 4
scooby_enable_hbw_reward 1
scooby_reward_hbw_correct_timely 20
scooby_reward_hbw_correct_untimely 12
scooby_reward_hbw_incorrect -14
scooby_reward_hbw_none -2
scooby_reward_hbw_out_of_bounds -12
scooby_reward_hbw_tracker_hit -2
scooby_last_pref_offset_conf_thresholds_hbw 1,3,8,
scooby_dyn_degrees_type2_hbw 1,2,4,6,

le_enable_trace 0
le_trace_interval 0
le_trace_file_name 
le_trace_state 0
le_enable_score_plot 0
le_plot_file_name 
le_plot_actions 
le_enable_action_trace 0
le_action_trace_interval 0
le_action_trace_name 
le_enable_action_plot 0

le_featurewise_active_features PC, PC_Delta
le_featurewise_num_tilings 3,3,
le_featurewise_num_tiles 128,128,
le_featurewise_hash_types 2,2,
le_featurewise_enable_tiling_offset 1,1,
le_featurewise_max_q_thresh 0.5
le_featurewise_enable_action_fallback 1
le_featurewise_feature_weights 1,1,
le_featurewise_enable_dynamic_weight 0
le_featurewise_weight_gradient 0.001
le_featurewise_disable_adjust_weight_all_features_align 1
le_featurewise_selective_update 0
le_featurewise_pooling_type 2
le_featurewise_enable_dyn_action_fallback 1
le_featurewise_bw_acc_check_level 1
le_featurewise_acc_thresh 2
le_featurewise_enable_trace 0
le_featurewise_trace_feature_type 0
le_featurewise_trace_feature 
le_featurewise_trace_interval 0
le_featurewise_trace_record_count 0
le_featurewise_trace_file_name 
le_featurewise_enable_score_plot 0
le_featurewise_plot_actions 
le_featurewise_plot_file_name 


Heartbeat CPU  0 instructions:    1000001 cycles:     430091 heartbeat IPC: 2.32509 cumulative IPC: 2.32509 (Simulation time: 0 hr 0 min 2 sec) 
Heartbeat CPU  0 instructions:    2000000 cycles:     860177 heartbeat IPC: 2.32511 cumulative IPC: 2.32510 (Simulation time: 0 hr 0 min 4 sec) 
Heartbeat CPU  0 instructions:    3000002 cycles:    1290174 heartbeat IPC: 2.32560 cumulative IPC: 2.32527 (Simulation time: 0 hr 0 min 5 sec) 
Heartbeat CPU  0 instructions:    4000000 cycles:    1720150 heartbeat IPC: 2.32571 cumulative IPC: 2.32538 (Simulation time: 0 hr 0 min 7 sec) 
Heartbeat CPU  0 instructions:    5000001 cycles:    2150190 heartbeat IPC: 2.32537 cumulative IPC: 2.32538 (Simulation time: 0 hr 0 min 9 sec) 
Heartbeat CPU  0 instructions:    6000001 cycles:    2580143 heartbeat IPC: 2.32584 cumulative IPC: 2.32545 (Simulation time: 0 hr 0 min 11 sec) 
Heartbeat CPU  0 instructions:    7000001 cycles:    3010228 heartbeat IPC: 2.32512 cumulative IPC: 2.32541 (Simulation time: 0 hr 0 min 12 sec) 
Heartbeat CPU  0 instructions:    8000000 cycles:    3440158 heartbeat IPC: 2.32596 cumulative IPC: 2.32547 (Simulation time: 0 hr 0 min 14 sec) 
Heartbeat CPU  0 instructions:    9000000 cycles:    3870171 heartbeat IPC: 2.32551 cumulative IPC: 2.32548 (Simulation time: 0 hr 0 min 16 sec) 
Heartbeat CPU  0 instructions:   10000001 cycles:    4300039 heartbeat IPC: 2.32630 cumulative IPC: 2.32556 (Simulation time: 0 hr 0 min 18 sec) 

Warmup complete CPU  0 instructions:   10000001 cycles:    4300039 (Simulation time: 0 hr 0 min 18 sec) 

Heartbeat CPU  0 instructions:   11000002 cycles:    5130612 heartbeat IPC: 1.20399 cumulative IPC: 1.20399 (Simulation time: 0 hr 0 min 20 sec) 
Heartbeat CPU  0 instructions:   12000000 cycles:    5964965 heartbeat IPC: 1.19853 cumulative IPC: 1.20125 (Simulation time: 0 hr 0 min 22 sec) 
Heartbeat CPU  0 instructions:   13000002 cycles:    6801825 heartbeat IPC: 1.19495 cumulative IPC: 1.19914 (Simulation time: 0 hr 0 min 24 sec) 
Heartbeat CPU  0 instructions:   14000002 cycles:    7634232 heartbeat IPC: 1.20134 cumulative IPC: 1.19969 (Simulation time: 0 hr 0 min 26 sec) 
Heartbeat CPU  0 instructions:   15000001 cycles:    8469587 heartbeat IPC: 1.19709 cumulative IPC: 1.19917 (Simulation time: 0 hr 0 min 28 sec) 
Heartbeat CPU  0 instructions:   16000000 cycles:    9301489 heartbeat IPC: 1.20206 cumulative IPC: 1.19965 (Simulation time: 0 hr 0 min 30 sec) 
Heartbeat CPU  0 instructions:   17000001 cycles:   10140512 heartbeat IPC: 1.19186 cumulative IPC: 1.19853 (Simulation time: 0 hr 0 min 32 sec) 
Heartbeat CPU  0 instructions:   18000002 cycles:   10984912 heartbeat IPC: 1.18427 cumulative IPC: 1.19673 (Simulation time: 0 hr 0 min 34 sec) 
Heartbeat CPU  0 instructions:   19000003 cycles:   11816777 heartbeat IPC: 1.20212 cumulative IPC: 1.19733 (Simulation time: 0 hr 0 min 36 sec) 
Heartbeat CPU  0 instructions:   20000000 cycles:   12654372 heartbeat IPC: 1.19389 cumulative IPC: 1.19698 (Simulation time: 0 hr 0 min 38 sec) 
Heartbeat CPU  0 instructions:   21000000 cycles:   13489745 heartbeat IPC: 1.19707 cumulative IPC: 1.19699 (Simulation time: 0 hr 0 min 40 sec) 
Heartbeat CPU  0 instructions:   22000002 cycles:   14325967 heartbeat IPC: 1.19586 cumulative IPC: 1.19690 (Simulation time: 0 hr 0 min 42 sec) 
Heartbeat CPU  0 instructions:   23000000 cycles:   15154410 heartbeat IPC: 1.20708 cumulative IPC: 1.19767 (Simulation time: 0 hr 0 min 44 sec) 
Heartbeat CPU  0 instructions:   24000000 cycles:   15987920 heartbeat IPC: 1.19975 cumulative IPC: 1.19782 (Simulation time: 0 hr 0 min 46 sec) 
Heartbeat CPU  0 instructions:   25000001 cycles:   16819811 heartbeat IPC: 1.20208 cumulative IPC: 1.19810 (Simulation time: 0 hr 0 min 48 sec) 
Heartbeat CPU  0 instructions:   26000001 cycles:   17654204 heartbeat IPC: 1.19848 cumulative IPC: 1.19813 (Simulation time: 0 hr 0 min 50 sec) 
Heartbeat CPU  0 instructions:   27000001 cycles:   18491980 heartbeat IPC: 1.19364 cumulative IPC: 1.19786 (Simulation time: 0 hr 0 min 52 sec) 
Heartbeat CPU  0 instructions:   28000000 cycles:   19330550 heartbeat IPC: 1.19251 cumulative IPC: 1.19756 (Simulation time: 0 hr 0 min 54 sec) 
Heartbeat CPU  0 instructions:   29000000 cycles:   20164581 heartbeat IPC: 1.19900 cumulative IPC: 1.19764 (Simulation time: 0 hr 0 min 56 sec) 
Heartbeat CPU  0 instructions:   30000003 cycles:   21009615 heartbeat IPC: 1.18339 cumulative IPC: 1.19692 (Simulation time: 0 hr 0 min 58 sec) 
Heartbeat CPU  0 instructions:   31000001 cycles:   21839682 heartbeat IPC: 1.20472 cumulative IPC: 1.19729 (Simulation time: 0 hr 1 min 0 sec) 
Heartbeat CPU  0 instructions:   32000000 cycles:   22668113 heartbeat IPC: 1.20710 cumulative IPC: 1.19773 (Simulation time: 0 hr 1 min 2 sec) 
Heartbeat CPU  0 instructions:   33000000 cycles:   23502827 heartbeat IPC: 1.19802 cumulative IPC: 1.19774 (Simulation time: 0 hr 1 min 4 sec) 
Heartbeat CPU  0 instructions:   34000000 cycles:   24342245 heartbeat IPC: 1.19130 cumulative IPC: 1.19747 (Simulation time: 0 hr 1 min 6 sec) 
Heartbeat CPU  0 instructions:   35000000 cycles:   25177003 heartbeat IPC: 1.19795 cumulative IPC: 1.19749 (Simulation time: 0 hr 1 min 8 sec) 
Heartbeat CPU  0 instructions:   36000000 cycles:   26008533 heartbeat IPC: 1.20260 cumulative IPC: 1.19769 (Simulation time: 0 hr 1 min 10 sec) 
Heartbeat CPU  0 instructions:   37000003 cycles:   26847859 heartbeat IPC: 1.19144 cumulative IPC: 1.19746 (Simulation time: 0 hr 1 min 12 sec) 
Heartbeat CPU  0 instructions:   38000000 cycles:   27683951 heartbeat IPC: 1.19604 cumulative IPC: 1.19740 (Simulation time: 0 hr 1 min 14 sec) 
Heartbeat CPU  0 instructions:   39000001 cycles:   28515452 heartbeat IPC: 1.20265 cumulative IPC: 1.19758 (Simulation time: 0 hr 1 min 16 sec) 
Heartbeat CPU  0 instructions:   40000000 cycles:   29351934 heartbeat IPC: 1.19548 cumulative IPC: 1.19751 (Simulation time: 0 hr 1 min 18 sec) 
Heartbeat CPU  0 instructions:   41000002 cycles:   30181798 heartbeat IPC: 1.20502 cumulative IPC: 1.19775 (Simulation time: 0 hr 1 min 20 sec) 
Heartbeat CPU  0 instructions:   42000003 cycles:   31018240 heartbeat IPC: 1.19554 cumulative IPC: 1.19769 (Simulation time: 0 hr 1 min 22 sec) 
Heartbeat CPU  0 instructions:   43000000 cycles:   31851127 heartbeat IPC: 1.20064 cumulative IPC: 1.19777 (Simulation time: 0 hr 1 min 24 sec) 
Heartbeat CPU  0 instructions:   44000000 cycles:   32683794 heartbeat IPC: 1.20096 cumulative IPC: 1.19787 (Simulation time: 0 hr 1 min 26 sec) 
Heartbeat CPU  0 instructions:   45000000 cycles:   33516697 heartbeat IPC: 1.20062 cumulative IPC: 1.19795 (Simulation time: 0 hr 1 min 28 sec) 
Heartbeat CPU  0 instructions:   46000003 cycles:   34355222 heartbeat IPC: 1.19257 cumulative IPC: 1.19780 (Simulation time: 0 hr 1 min 30 sec) 
Heartbeat CPU  0 instructions:   47000003 cycles:   35192677 heartbeat IPC: 1.19409 cumulative IPC: 1.19770 (Simulation time: 0 hr 1 min 32 sec) 
Heartbeat CPU  0 instructions:   48000000 cycles:   36024145 heartbeat IPC: 1.20269 cumulative IPC: 1.19783 (Simulation time: 0 hr 1 min 34 sec) 
Heartbeat CPU  0 instructions:   49000002 cycles:   36861774 heartbeat IPC: 1.19385 cumulative IPC: 1.19772 (Simulation time: 0 hr 1 min 36 sec) 
Heartbeat CPU  0 instructions:   50000003 cycles:   37697460 heartbeat IPC: 1.19662 cumulative IPC: 1.19770 (Simulation time: 0 hr 1 min 38 sec) 
Heartbeat CPU  0 instructions:   51000003 cycles:   38532109 heartbeat IPC: 1.19811 cumulative IPC: 1.19771 (Simulation time: 0 hr 1 min 41 sec) 
Heartbeat CPU  0 instructions:   52000000 cycles:   39370766 heartbeat IPC: 1.19238 cumulative IPC: 1.19758 (Simulation time: 0 hr 1 min 43 sec) 
Heartbeat CPU  0 instructions:   53000002 cycles:   40212195 heartbeat IPC: 1.18846 cumulative IPC: 1.19737 (Simulation time: 0 hr 1 min 45 sec) 
Heartbeat CPU  0 instructions:   54000002 cycles:   41049724 heartbeat IPC: 1.19399 cumulative IPC: 1.19729 (Simulation time: 0 hr 1 min 47 sec) 
Heartbeat CPU  0 instructions:   55000002 cycles:   41883993 heartbeat IPC: 1.19865 cumulative IPC: 1.19732 (Simulation time: 0 hr 1 min 49 sec) 
Heartbeat CPU  0 instructions:   56000000 cycles:   42727276 heartbeat IPC: 1.18584 cumulative IPC: 1.19707 (Simulation time: 0 hr 1 min 51 sec) 
Heartbeat CPU  0 instructions:   57000001 cycles:   43563198 heartbeat IPC: 1.19629 cumulative IPC: 1.19705 (Simulation time: 0 hr 1 min 53 sec) 
Heartbeat CPU  0 instructions:   58000001 cycles:   44398382 heartbeat IPC: 1.19734 cumulative IPC: 1.19706 (Simulation time: 0 hr 1 min 55 sec) 
Heartbeat CPU  0 instructions:   59000003 cycles:   45236939 heartbeat IPC: 1.19253 cumulative IPC: 1.19696 (Simulation time: 0 hr 1 min 57 sec) 
Heartbeat CPU  0 instructions:   60000000 cycles:   46072927 heartbeat IPC: 1.19619 cumulative IPC: 1.19695 (Simulation time: 0 hr 1 min 59 sec) 
Finished CPU 0 instructions: 50000000 cycles: 41772896 cumulative IPC: 1.19695 (Simulation time: 0 hr 1 min 59 sec) 

ChampSim completed all CPUs

[ROI Statistics]
Core_0_instructions 50000000
Core_0_cycles 41772896
Core_0_IPC 1.19695

Core_0_branch_prediction_accuracy 99.97505
Core_0_branch_MPKI 0.00438
Core_0_average_ROB_occupancy_at_mispredict 254.08676

Core_0_L1D_total_access 10277362
Core_0_L1D_total_hit 9615667
Core_0_L1D_total_miss 661695
Core_0_L1D_loads 6768587
Core_0_L1D_load_hit 6107553
Core_0_L1D_load_miss 661034
Core_0_L1D_RFOs 3508775
Core_0_L1D_RFO_hit 3508114
Core_0_L1D_RFO_miss 661
Core_0_L1D_prefetches 0
Core_0_L1D_prefetch_hit 0
Core_0_L1D_prefetch_miss 0
Core_0_L1D_writebacks 0
Core_0_L1D_writeback_hit 0
Core_0_L1D_writeback_miss 0
Core_0_L1D_prefetch_requested 0
Core_0_L1D_prefetch_dropped 0
Core_0_L1D_prefetch_issued 0
Core_0_L1D_prefetch_filled 0
Core_0_L1D_prefetch_useful 0
Core_0_L1D_prefetch_useless 0
Core_0_L1D_prefetch_late 0
Core_0_L1D_average_miss_latency 22.55348

Core_0_L1D_rq_access 17541470
Core_0_L1D_rq_forward 0
Core_0_L1D_rq_merged 10540194
Core_0_L1D_rq_to_cache 7001276
Core_0_L1D_rq_full 0

Core_0_L1D_wq_access 3510282
Core_0_L1D_wq_forward 0
Core_0_L1D_wq_merged 0
Core_0_L1D_wq_to_cache 3510282
Core_0_L1D_wq_full 0

Core_0_L1D_pq_access 0
Core_0_L1D_pq_forward 0
Core_0_L1D_pq_merged 0
Core_0_L1D_pq_to_cache 0
Core_0_L1D_pq_full 0

Core_0_L1D_acc_epochs 44330
Core_0_L1D_acc_level_0 44330
Core_0_L1D_acc_level_1 0
Core_0_L1D_acc_level_2 0
Core_0_L1D_acc_level_3 0
Core_0_L1D_acc_level_4 0
Core_0_L1D_acc_level_5 0
Core_0_L1D_acc_level_6 0
Core_0_L1D_acc_level_7 0
Core_0_L1D_acc_level_8 0
Core_0_L1D_acc_level_9 0

Core_0_L1I_total_access 10230934
Core_0_L1I_total_hit 10230934
Core_0_L1I_total_miss 0
Core_0_L1I_loads 10230934
Core_0_L1I_load_hit 10230934
Core_0_L1I_load_miss 0
Core_0_L1I_RFOs 0
Core_0_L1I_RFO_hit 0
Core_0_L1I_RFO_miss 0
Core_0_L1I_prefetches 0
Core_0_L1I_prefetch_hit 0
Core_0_L1I_prefetch_miss 0
Core_0_L1I_writebacks 0
Core_0_L1I_writeback_hit 0
Core_0_L1I_writeback_miss 0
Core_0_L1I_prefetch_requested 0
Core_0_L1I_prefetch_dropped 0
Core_0_L1I_prefetch_issued 0
Core_0_L1I_prefetch_filled 0
Core_0_L1I_prefetch_useful 0
Core_0_L1I_prefetch_useless 0
Core_0_L1I_prefetch_late 0
Core_0_L1I_average_miss_latency -nan

Core_0_L1I_rq_access 50000007
Core_0_L1I_rq_forward 0
Core_0_L1I_rq_merged 39769073
Core_0_L1I_rq_to_cache 10230934
Core_0_L1I_rq_full 0

Core_0_L1I_wq_access 0
Core_0_L1I_wq_forward 0
Core_0_L1I_wq_merged 0
Core_0_L1I_wq_to_cache 0
Core_0_L1I_wq_full 0

Core_0_L1I_pq_access 0
Core_0_L1I_pq_forward 0
Core_0_L1I_pq_merged 0
Core_0_L1I_pq_to_cache 0
Core_0_L1I_pq_full 0

Core_0_L1I_acc_epochs 44330
Core_0_L1I_acc_level_0 44330
Core_0_L1I_acc_level_1 0
Core_0_L1I_acc_level_2 0
Core_0_L1I_acc_level_3 0
Core_0_L1I_acc_level_4 0
Core_0_L1I_acc_level_5 0
Core_0_L1I_acc_level_6 0
Core_0_L1I_acc_level_7 0
Core_0_L1I_acc_level_8 0
Core_0_L1I_acc_level_9 0

Core_0_L2C_total_access 3576503
Core_0_L2C_total_hit 2913808
Core_0_L2C_total_miss 662695
Core_0_L2C_loads 661034
Core_0_L2C_load_hit 613311
Core_0_L2C_load_miss 47723
Core_0_L2C_RFOs 661
Core_0_L2C_RFO_hit 110
Core_0_L2C_RFO_miss 551
Core_0_L2C_prefetches 2475456
Core_0_L2C_prefetch_hit 1861035
Core_0_L2C_prefetch_miss 614421
Core_0_L2C_writebacks 439352
Core_0_L2C_writeback_hit 439352
Core_0_L2C_writeback_miss 0
Core_0_L2C_prefetch_requested 4058994
Core_0_L2C_prefetch_dropped 0
Core_0_L2C_prefetch_issued 4058994
Core_0_L2C_prefetch_filled 744404
Core_0_L2C_prefetch_useful 741791
Core_0_L2C_prefetch_useless 2587
Core_0_L2C_prefetch_late 34737
Core_0_L2C_average_miss_latency 156.84575

Core_0_L2C_rq_access 661695
Core_0_L2C_rq_forward 0
Core_0_L2C_rq_merged 0
Core_0_L2C_rq_to_cache 661695
Core_0_L2C_rq_full 0

Core_0_L2C_wq_access 439352
Core_0_L2C_wq_forward 0
Core_0_L2C_wq_merged 0
Core_0_L2C_wq_to_cache 439352
Core_0_L2C_wq_full 0

Core_0_L2C_pq_access 4058994
Core_0_L2C_pq_forward 0
Core_0_L2C_pq_merged 6503
Core_0_L2C_pq_to_cache 4052491
Core_0_L2C_pq_full 0

Core_0_L2C_acc_epochs 44330
Core_0_L2C_acc_level_0 1
Core_0_L2C_acc_level_1 0
Core_0_L2C_acc_level_2 0
Core_0_L2C_acc_level_3 1
Core_0_L2C_acc_level_4 0
Core_0_L2C_acc_level_5 7
Core_0_L2C_acc_level_6 96
Core_0_L2C_acc_level_7 177
Core_0_L2C_acc_level_8 1649
Core_0_L2C_acc_level_9 42399

Core_0_LLC_total_access 1101593
Core_0_LLC_total_hit 225402
Core_0_LLC_total_miss 876191
Core_0_LLC_loads 12989
Core_0_LLC_load_hit 5852
Core_0_LLC_load_miss 7137
Core_0_LLC_RFOs 551
Core_0_LLC_RFO_hit 551
Core_0_LLC_RFO_miss 0
Core_0_LLC_prefetches 649155
Core_0_LLC_prefetch_hit 217534
Core_0_LLC_prefetch_miss 431621
Core_0_LLC_writebacks 438898
Core_0_LLC_writeback_hit 1465
Core_0_LLC_writeback_miss 437433
Core_0_LLC_prefetch_requested 0
Core_0_LLC_prefetch_dropped 0
Core_0_LLC_prefetch_issued 0
Core_0_LLC_prefetch_filled 520060
Core_0_LLC_prefetch_useful 193
Core_0_LLC_prefetch_useless 516790
Core_0_LLC_prefetch_late 0
Core_0_LLC_average_miss_latency 102.93243

Core_0_LLC_rq_access 13540
Core_0_LLC_rq_forward 0
Core_0_LLC_rq_merged 0
Core_0_LLC_rq_to_cache 13540
Core_0_LLC_rq_full 0

Core_0_LLC_wq_access 438898
Core_0_LLC_wq_forward 0
Core_0_LLC_wq_merged 0
Core_0_LLC_wq_to_cache 438898
Core_0_LLC_wq_full 0

Core_0_LLC_pq_access 779145
Core_0_LLC_pq_forward 0
Core_0_LLC_pq_merged 0
Core_0_LLC_pq_to_cache 779145
Core_0_LLC_pq_full 0

Core_0_LLC_acc_epochs 44994
Core_0_LLC_acc_level_0 44932
Core_0_LLC_acc_level_1 48
Core_0_LLC_acc_level_2 9
Core_0_LLC_acc_level_3 3
Core_0_LLC_acc_level_4 0
Core_0_LLC_acc_level_5 2
Core_0_LLC_acc_level_6 0
Core_0_LLC_acc_level_7 0
Core_0_LLC_acc_level_8 0
Core_0_LLC_acc_level_9 0

Core_0_major_page_fault 0
Core_0_minor_page_fault 8278

scooby_st_lookup 793283
scooby_st_hit 779486
scooby_st_evict 13733
scooby_st_insert 13797
scooby_st_streaming 0

scooby_predict_called 793283
scooby_predict_out_of_bounds 12634
scooby_predict_action_1 777913
scooby_predict_issue_action_1 777088
scooby_predict_hit_action_1 825
scooby_predict_out_of_bounds_action_1 12305
scooby_predict_action_3 524
scooby_predict_issue_action_3 407
scooby_predict_hit_action_3 117
scooby_predict_out_of_bounds_action_3 6
scooby_predict_action_4 283
scooby_predict_issue_action_4 153
scooby_predict_hit_action_4 130
scooby_predict_out_of_bounds_action_4 10
scooby_predict_action_5 141
scooby_predict_issue_action_5 130
scooby_predict_hit_action_5 11
scooby_predict_out_of_bounds_action_5 10
scooby_predict_action_10 254
scooby_predict_issue_action_10 254
scooby_predict_hit_action_10 0
scooby_predict_out_of_bounds_action_10 22
scooby_predict_action_11 104
scooby_predict_issue_action_11 104
scooby_predict_hit_action_11 0
scooby_predict_out_of_bounds_action_11 24
scooby_predict_action_12 272
scooby_predict_issue_action_12 162
scooby_predict_hit_action_12 110
scooby_predict_out_of_bounds_action_12 28
scooby_predict_action_22 96
scooby_predict_issue_action_22 96
scooby_predict_hit_action_22 0
scooby_predict_out_of_bounds_action_22 40
scooby_predict_action_23 89
scooby_predict_issue_action_23 89
scooby_predict_hit_action_23 0
scooby_predict_out_of_bounds_action_23 43
scooby_predict_action_30 80
scooby_predict_issue_action_30 80
scooby_predict_hit_action_30 0
scooby_predict_out_of_bounds_action_30 62
scooby_predict_action_32 58
scooby_predict_issue_action_32 58
scooby_predict_hit_action_32 0
scooby_predict_out_of_bounds_action_32 58
scooby_predict_action_-1 231
scooby_predict_issue_action_-1 140
scooby_predict_hit_action_-1 91
scooby_predict_out_of_bounds_action_-1 4
scooby_predict_action_-3 288
scooby_predict_issue_action_-3 199
scooby_predict_hit_action_-3 89
scooby_predict_out_of_bounds_action_-3 6
scooby_predict_action_-6 100
scooby_predict_issue_action_-6 31
scooby_predict_hit_action_-6 69
scooby_predict_out_of_bounds_action_-6 16
scooby_predict_action_0 216
scooby_predict_issue_action_0 0
scooby_predict_hit_action_0 0
scooby_predict_out_of_bounds_action_0 0
scooby_predict_multi_deg_called 737719
scooby_predict_predicted 4058994
scooby_predict_multi_deg 3280003
scooby_predict_multi_deg_2 725469
scooby_predict_multi_deg_3 688118
scooby_predict_multi_deg_4 675861
scooby_predict_multi_deg_5 601407
scooby_predict_multi_deg_6 589148
scooby_predict_multi_deg_7 0
scooby_predict_multi_deg_8 0
scooby_predict_multi_deg_9 0
scooby_predict_multi_deg_10 0
scooby_predict_multi_deg_11 0
scooby_predict_multi_deg_12 0
scooby_predict_multi_deg_13 0
scooby_predict_multi_deg_14 0
scooby_predict_multi_deg_15 0
scooby_predict_multi_deg_16 0

scooby_selected_deg_1 41272
scooby_selected_deg_2 25098
scooby_selected_deg_3 0
scooby_selected_deg_4 62214
scooby_selected_deg_5 0
scooby_selected_deg_6 650407
scooby_selected_deg_7 0
scooby_selected_deg_8 0
scooby_selected_deg_9 0
scooby_selected_deg_10 0
scooby_selected_deg_11 0
scooby_selected_deg_12 0
scooby_selected_deg_13 0
scooby_selected_deg_14 0
scooby_selected_deg_15 0
scooby_selected_deg_16 0

scooby_state_405cb2|1|1 3095,0,1,1,1,1,0,0,0,0,0,0,0,0,1,3100,
scooby_state_405df2|18|1 3029,1,2,1,0,0,0,0,0,2,0,1,0,0,0,3036,
scooby_state_405cb2|33|1 3023,1,0,0,0,0,1,1,0,1,0,1,0,0,0,3028,
scooby_state_405cb2|2|1 3021,0,1,0,1,0,0,0,0,0,1,0,0,0,3,3027,
scooby_state_405df2|51|1 3012,0,0,0,0,0,1,0,0,1,1,0,0,0,1,3016,
scooby_state_405df2|8|1 3012,0,0,1,0,0,0,0,1,0,0,0,0,0,0,3014,
scooby_state_405df2|46|1 3009,0,0,0,0,1,0,1,0,0,1,1,0,0,0,3013,
scooby_state_405df2|61|1 3009,0,0,0,0,0,0,0,0,1,0,0,0,0,1,3011,
scooby_state_405df2|2|1 3001,1,0,0,0,2,2,2,0,0,1,1,0,0,0,3010,
scooby_state_405df2|62|1 3008,0,1,0,0,0,0,0,0,0,0,1,0,0,0,3010,
scooby_state_405df2|40|1 3002,1,1,0,1,2,0,0,0,1,0,1,0,1,0,3010,
scooby_state_405df2|7|1 3001,2,0,0,0,0,0,0,0,0,0,0,1,0,0,3004,
scooby_state_405df2|58|1 3001,1,0,0,0,1,0,0,0,1,0,0,0,0,0,3004,
scooby_state_405df2|29|1 3000,0,2,0,0,0,0,0,0,1,0,0,0,0,0,3003,
scooby_state_405df2|38|1 2996,0,1,1,1,0,0,0,0,0,1,0,1,0,1,3002,
scooby_state_405df2|16|1 2993,1,0,0,1,0,2,0,1,0,0,1,0,1,0,3000,
scooby_state_405df2|5|1 2990,0,2,0,1,0,0,2,0,0,1,0,0,2,2,3000,
scooby_state_405df2|49|1 2994,0,1,1,1,0,1,0,1,0,0,1,0,0,0,3000,
scooby_state_405cb2|15|1 2994,0,0,0,0,1,1,0,0,0,0,1,0,0,1,2998,
scooby_state_405df2|30|1 2992,0,0,0,0,0,0,1,0,1,1,0,0,0,2,2997,
scooby_state_405df2|15|1 2992,0,1,0,0,1,2,0,0,1,0,0,0,0,0,2997,
scooby_state_405cb2|0|0 2988,0,1,1,1,0,0,1,0,1,1,1,1,0,0,2996,
scooby_state_405cb2|24|1 2990,1,1,0,0,0,0,0,1,0,0,0,0,0,0,2993,
scooby_state_405df2|33|1 2985,1,1,1,1,0,0,0,0,2,0,2,0,0,0,2993,
scooby_state_405cb2|9|1 2988,0,0,0,0,1,0,0,1,0,0,0,0,1,0,2991,
scooby_state_405df2|22|1 2984,0,0,2,2,0,1,0,1,1,0,0,0,0,0,2991,
scooby_state_405cb2|44|1 2978,0,1,1,2,1,1,1,0,0,1,1,1,1,0,2989,
scooby_state_405df2|26|1 2985,0,1,1,0,0,0,0,0,1,0,0,0,0,0,2988,
scooby_state_405df2|19|1 2984,0,0,1,0,0,0,0,0,0,1,0,0,0,1,2987,
scooby_state_405df2|1|1 2983,1,0,0,0,0,1,1,1,0,0,0,0,0,0,2987,
scooby_state_405df2|50|1 2983,0,0,2,1,0,0,0,0,1,0,0,0,0,0,2987,
scooby_state_405cb2|11|1 2983,0,2,0,0,0,0,0,0,0,0,0,0,0,0,2985,
scooby_state_405cb2|53|1 2979,0,0,0,0,0,1,0,0,1,1,1,2,0,0,2985,
scooby_state_405cb2|28|1 2980,0,1,1,2,0,0,0,0,0,1,0,0,0,0,2985,
scooby_state_405df2|9|1 2982,0,0,0,1,0,0,0,0,1,1,0,0,0,0,2985,
scooby_state_405df2|60|1 2979,0,1,1,0,0,1,1,0,1,0,0,0,0,1,2985,
scooby_state_405df2|35|1 2982,0,0,0,0,0,0,0,1,0,0,0,1,0,0,2984,
scooby_state_405cb2|22|1 2979,0,1,1,0,0,0,1,0,0,1,0,0,0,0,2983,
scooby_state_405df2|4|1 2979,1,0,0,1,0,1,0,0,0,0,0,1,0,0,2983,
scooby_state_405df2|0|0 2978,1,0,1,0,0,1,0,1,0,0,1,0,0,0,2983,
scooby_state_405cb2|42|1 2975,1,1,0,0,2,0,0,2,0,0,0,0,0,0,2981,
scooby_state_405df2|42|1 2977,1,1,0,0,1,0,0,0,0,0,1,0,0,0,2981,
scooby_state_405cb2|61|1 2972,0,0,1,0,0,1,1,0,1,1,0,0,2,2,2981,
scooby_state_405df2|27|1 2977,0,1,0,0,0,0,2,0,0,0,0,0,0,0,2980,
scooby_state_405cb2|13|1 2975,0,0,0,0,0,1,0,0,0,0,1,0,1,1,2979,
scooby_state_405cb2|45|1 2973,0,0,0,0,0,0,0,0,1,0,1,0,2,1,2978,
scooby_state_405df2|28|1 2971,1,0,1,0,1,1,0,0,1,0,0,1,0,1,2978,
scooby_state_405cb2|19|1 2971,1,0,0,1,1,1,1,1,0,0,0,1,0,0,2978,
scooby_state_405cb2|55|1 2971,0,0,1,0,1,0,2,0,0,0,2,0,0,0,2977,
scooby_state_405cb2|8|1 2971,1,0,0,0,0,1,2,0,1,0,0,0,0,0,2976,
scooby_state_405df2|31|1 2972,0,0,0,0,0,0,2,0,0,0,1,0,1,0,2976,
scooby_state_405df2|41|1 2971,1,0,0,0,0,0,1,0,1,0,1,0,1,0,2976,
scooby_state_405df2|17|1 2970,0,0,0,0,0,0,3,1,0,0,0,0,1,0,2975,
scooby_state_405df2|57|1 2967,1,0,0,0,1,1,0,0,1,0,0,0,1,1,2973,
scooby_state_405df2|39|1 2964,2,0,0,0,1,0,0,0,1,0,0,0,2,1,2971,
scooby_state_405cb2|37|1 2965,0,0,0,0,1,1,1,1,0,0,1,1,0,0,2971,
scooby_state_405cb2|39|1 2968,0,0,0,0,1,1,0,1,0,0,0,0,0,0,2971,
scooby_state_405cb2|57|1 2963,1,0,1,1,0,2,0,0,0,0,0,0,0,1,2969,
scooby_state_405cb2|30|1 2964,1,0,1,1,0,0,0,0,0,0,0,1,0,0,2968,
scooby_state_405df2|52|1 2961,0,1,0,0,0,1,0,0,0,0,1,0,1,1,2966,
scooby_state_405cb2|51|1 2960,0,1,0,0,0,0,1,2,0,1,0,0,0,0,2965,
scooby_state_405cb2|6|1 2960,0,1,1,0,0,0,0,0,1,1,0,0,0,1,2965,
scooby_state_405df2|20|1 2960,0,1,0,1,0,0,0,0,0,1,1,1,0,0,2965,
scooby_state_405cb2|23|1 2962,1,0,0,0,0,0,0,0,0,1,1,0,0,0,2965,
scooby_state_405cb2|62|1 2959,0,0,1,0,0,2,1,1,0,1,0,0,0,0,2965,
scooby_state_405cb2|10|1 2955,1,0,1,0,0,2,2,1,0,0,0,1,1,0,2964,
scooby_state_405df2|55|1 2963,0,1,0,0,0,0,0,0,0,0,0,0,0,0,2964,
scooby_state_405df2|24|1 2960,0,0,0,0,1,0,1,0,0,0,0,1,0,1,2964,
scooby_state_405df2|47|1 2958,0,0,0,3,0,0,1,0,0,0,1,0,0,1,2964,
scooby_state_405cb2|31|1 2958,0,0,1,1,0,0,0,2,0,0,1,0,0,0,2963,
scooby_state_405df2|6|1 2956,0,1,0,1,1,0,1,0,2,0,0,0,0,0,2962,
scooby_state_405df2|13|1 2957,0,0,0,0,0,0,1,0,0,0,2,1,0,0,2961,
scooby_state_405cb2|56|1 2954,0,1,1,1,0,1,2,0,0,0,0,0,0,0,2960,
scooby_state_405df2|36|1 2950,1,3,0,0,0,2,0,0,0,0,0,2,1,0,2959,
scooby_state_405cb2|26|1 2958,0,0,0,0,0,0,0,0,0,0,1,0,0,0,2959,
scooby_state_405df2|63|1 2946,0,1,0,0,2,0,3,1,1,0,2,0,3,0,2959,
scooby_state_405cb2|48|1 2953,0,0,1,0,0,0,0,0,1,1,0,0,2,1,2959,
scooby_state_405cb2|34|1 2956,0,0,0,0,1,0,0,0,0,1,0,0,0,0,2958,
scooby_state_405cb2|21|1 2952,0,1,1,0,0,0,0,2,0,0,0,0,0,1,2957,
scooby_state_405df2|53|1 2949,1,1,0,2,0,0,0,0,0,1,1,0,0,1,2956,
scooby_state_405cb2|50|1 2951,1,0,0,0,0,0,1,0,1,0,0,0,0,1,2955,
scooby_state_405cb2|32|1 2953,1,0,1,0,0,0,0,0,0,0,0,0,0,0,2955,
scooby_state_405df2|44|1 2949,0,0,0,1,2,0,0,1,0,0,1,1,0,0,2955,
scooby_state_405cb2|43|1 2946,1,0,0,0,2,1,1,0,0,1,0,0,0,1,2953,
scooby_state_405df2|11|1 2951,0,1,0,0,0,0,0,0,0,0,0,0,0,1,2953,
scooby_state_405cb2|36|1 2938,1,0,1,0,0,0,2,0,3,1,1,1,2,1,2951,
scooby_state_405cb2|41|1 2944,1,0,0,0,1,0,1,1,1,1,0,0,0,0,2950,
scooby_state_405cb2|20|1 2947,0,0,1,0,0,0,0,0,1,0,1,0,0,0,2950,
scooby_state_405df2|37|1 2941,1,0,0,0,0,1,2,0,0,0,0,1,1,3,2950,
scooby_state_405cb2|12|1 2945,1,0,0,0,1,1,0,0,0,0,0,0,0,0,2948,
scooby_state_405cb2|29|1 2944,0,0,1,0,0,0,0,0,0,0,0,0,1,1,2947,
scooby_state_405cb2|54|1 2941,0,1,0,0,1,0,0,1,1,1,0,0,0,0,2946,
scooby_state_405df2|25|1 2940,0,0,1,0,0,0,1,2,0,0,0,1,0,1,2946,
scooby_state_405df2|43|1 2941,0,0,0,0,2,1,0,1,0,0,0,1,0,0,2946,
scooby_state_405cb2|17|1 2941,0,0,0,0,0,0,0,0,1,0,1,2,0,0,2945,
scooby_state_405cb2|25|1 2940,0,0,0,0,1,2,1,0,1,0,0,0,0,0,2945,
scooby_state_405cb2|46|1 2939,0,0,0,0,0,0,0,0,1,1,0,0,1,0,2942,
scooby_state_405cb2|4|1 2939,0,2,0,0,0,0,0,0,0,0,0,0,0,0,2941,
scooby_state_405df2|10|1 2935,1,1,0,0,0,1,0,0,0,0,0,2,0,0,2940,
scooby_state_405df2|59|1 2937,1,0,0,0,0,1,0,0,1,0,0,0,0,0,2940,
scooby_state_405cb2|35|1 2933,0,0,1,0,0,1,0,2,0,0,0,0,2,0,2939,
scooby_state_405cb2|40|1 2932,0,0,0,1,1,0,1,1,0,0,0,1,0,1,2938,
scooby_state_405cb2|18|1 2931,0,0,2,1,0,0,0,0,0,0,0,0,0,0,2934,
scooby_state_405df2|34|1 2922,0,2,0,1,0,0,0,1,1,1,0,1,2,1,2932,
scooby_state_405cb2|5|1 2926,0,0,0,0,0,0,0,2,0,0,1,1,1,0,2931,
scooby_state_405cb2|47|1 2923,0,1,1,2,0,2,0,2,0,0,0,0,0,0,2931,
scooby_state_405cb2|59|1 2926,0,2,0,0,0,0,0,0,1,0,1,1,0,0,2931,
scooby_state_405df2|21|1 2928,0,0,0,0,0,0,2,0,1,0,0,0,0,0,2931,
scooby_state_405cb2|58|1 2927,0,0,0,0,0,0,0,0,0,0,0,2,0,1,2930,
scooby_state_405cb2|3|1 2923,1,0,1,0,0,0,0,1,0,2,2,0,0,0,2930,
scooby_state_405cb2|52|1 2920,1,0,0,1,0,0,1,1,0,0,2,2,2,0,2930,
scooby_state_405cb2|14|1 2921,1,0,2,0,0,1,0,2,0,0,1,0,0,1,2929,
scooby_state_405df2|48|1 2924,0,2,0,1,1,0,0,1,0,0,0,0,0,0,2929,
scooby_state_405df2|54|1 2922,2,0,0,0,1,0,0,1,1,1,0,1,0,0,2929,
scooby_state_405cb2|63|1 2926,0,0,0,0,0,1,0,0,0,1,0,0,0,0,2928,
scooby_state_405df2|32|1 2919,0,0,1,1,0,0,0,1,2,1,1,1,0,0,2927,
scooby_state_405cb2|49|1 2913,0,0,0,0,1,1,0,0,0,1,1,0,0,0,2917,
scooby_state_405df2|45|1 2913,0,1,0,0,0,1,0,0,0,0,0,0,2,0,2917,
scooby_state_405df2|14|1 2909,0,0,1,1,0,1,1,1,0,1,0,0,0,1,2916,
scooby_state_405df2|3|1 2910,1,0,0,0,1,1,0,1,0,0,0,0,1,0,2915,
scooby_state_405df2|12|1 2906,1,0,0,1,0,0,1,0,2,0,0,1,0,0,2912,
scooby_state_405cb2|7|1 2906,1,0,0,1,0,0,1,0,1,0,0,0,0,0,2910,
scooby_state_405df2|23|1 2899,0,1,1,0,0,0,0,0,0,0,0,0,1,0,2902,
scooby_state_405cb2|60|1 2895,0,1,0,1,0,1,1,0,0,0,0,1,1,0,2901,
scooby_state_405cb2|27|1 2894,1,0,1,0,0,0,0,0,0,1,0,0,0,0,2897,
scooby_state_405cb2|38|1 2891,0,0,0,0,1,1,0,0,2,0,0,0,0,1,2896,
scooby_state_405df2|56|1 2893,0,0,1,0,0,0,0,1,0,0,1,0,0,0,2896,
scooby_state_405cb2|16|1 2874,0,0,0,0,0,1,2,1,1,0,0,0,0,0,2879,
scooby_state_405d32|47|1 2099,2,0,0,0,1,0,0,1,0,0,1,0,0,0,2104,
scooby_state_405d32|27|1 2099,0,1,0,0,1,0,0,0,0,0,1,2,0,0,2104,
scooby_state_405d32|38|1 2102,0,0,0,0,0,0,0,1,0,0,1,0,0,0,2104,
scooby_state_405d32|34|1 2101,0,0,0,0,0,0,0,1,1,1,0,0,0,0,2104,
scooby_state_405d32|49|1 2099,0,0,1,0,0,1,0,0,2,0,0,0,0,1,2104,
scooby_state_405d32|14|1 2102,0,0,1,0,0,0,0,0,1,0,0,0,0,0,2104,
scooby_state_405d32|30|1 2101,1,0,0,0,1,0,0,0,0,0,0,0,0,1,2104,
scooby_state_405d32|19|1 2103,0,0,0,0,0,1,0,0,0,0,0,0,0,0,2104,
scooby_state_405d32|25|1 2100,0,0,0,1,1,0,0,1,1,0,0,0,0,0,2104,
scooby_state_405d32|18|1 2102,0,0,1,0,0,0,0,0,0,0,0,0,0,1,2104,
scooby_state_405d32|10|1 2102,0,0,0,0,0,0,1,1,0,0,0,0,0,0,2104,
scooby_state_405d32|15|1 2096,1,0,1,2,0,0,0,1,1,0,1,1,0,0,2104,
scooby_state_405d32|48|1 2104,0,0,0,0,0,0,0,0,0,0,0,0,0,0,2104,
scooby_state_405d32|43|1 2101,0,1,0,0,0,1,0,0,1,0,0,0,0,0,2104,
scooby_state_405d32|41|1 2101,0,1,0,1,0,0,0,0,0,0,0,0,1,0,2104,
scooby_state_405d32|45|1 2101,0,0,0,0,0,0,0,0,1,1,0,0,1,0,2104,
scooby_state_405d32|35|1 2102,0,0,0,0,0,0,0,0,0,0,0,0,2,0,2104,
scooby_state_405d32|44|1 2101,0,1,0,0,1,0,0,0,1,0,0,0,0,0,2104,
scooby_state_405d32|26|1 2101,0,0,1,0,0,0,0,0,0,0,0,0,0,2,2104,
scooby_state_405d32|40|1 2100,0,0,1,0,0,0,0,2,0,1,0,0,0,0,2104,
scooby_state_405d32|39|1 2100,0,0,1,1,0,1,0,1,0,0,0,0,0,0,2104,
scooby_state_405d32|32|1 2102,0,0,0,0,0,0,0,0,1,1,0,0,0,0,2104,
scooby_state_405d32|21|1 2101,0,1,0,1,0,0,0,0,0,1,0,0,0,0,2104,
scooby_state_405d32|22|1 2103,1,0,0,0,0,0,0,0,0,0,0,0,0,0,2104,
scooby_state_405d32|36|1 2099,0,0,0,1,0,1,0,1,0,1,0,0,1,0,2104,
scooby_state_405d32|24|1 2101,0,0,0,0,1,1,0,0,0,0,0,0,1,0,2104,
scooby_state_405d32|11|1 2099,0,1,1,1,0,2,0,0,0,0,0,0,0,0,2104,
scooby_state_405d32|20|1 2103,0,0,0,0,0,1,0,0,0,0,0,0,0,0,2104,
scooby_state_405d32|16|1 2104,0,0,0,0,0,0,0,0,0,0,0,0,0,0,2104,
scooby_state_405d32|33|1 2102,0,0,0,0,1,0,0,0,1,0,0,0,0,0,2104,
scooby_state_405d32|12|1 2099,0,1,0,0,0,0,0,0,2,1,1,0,0,0,2104,
scooby_state_405d32|46|1 2099,1,0,2,0,0,0,0,0,1,1,0,0,0,0,2104,
scooby_state_405d32|23|1 2102,0,0,0,0,0,0,0,0,1,0,0,0,1,0,2104,
scooby_state_405d32|28|1 2103,0,1,0,0,0,0,0,0,0,0,0,0,0,0,2104,
scooby_state_405d32|29|1 2100,1,0,0,0,1,0,0,0,2,0,0,0,0,0,2104,
scooby_state_405d32|42|1 2100,1,0,1,0,0,0,0,1,0,0,0,0,0,1,2104,
scooby_state_405d32|13|1 2099,1,0,0,0,1,0,0,0,0,0,1,1,0,1,2104,
scooby_state_405d32|17|1 2099,0,0,0,0,1,0,0,2,0,1,0,1,0,0,2104,
scooby_state_405d32|37|1 2102,0,0,0,0,0,0,0,0,0,1,0,0,1,0,2104,
scooby_state_405d32|31|1 2100,0,0,0,0,0,1,0,0,0,1,1,1,0,0,2104,
scooby_state_405bf2|0|0 2095,0,0,0,1,2,1,1,0,0,0,1,0,0,1,2102,
scooby_state_405bf2|34|1 2099,0,0,0,1,0,0,2,0,0,0,0,0,0,0,2102,
scooby_state_405bf2|55|1 2101,0,0,0,0,0,0,0,1,0,0,0,0,0,0,2102,
scooby_state_405bf2|61|1 2100,0,0,1,0,0,0,0,0,0,0,0,1,0,0,2102,
scooby_state_405bf2|9|1 2097,1,0,2,0,0,0,0,0,0,1,0,1,0,0,2102,
scooby_state_405bf2|51|1 2098,1,1,0,0,0,0,0,0,0,1,1,0,0,0,2102,
scooby_state_405bf2|7|1 2100,1,0,0,0,0,0,0,0,0,0,1,0,0,0,2102,
scooby_state_405bf2|57|1 2099,0,0,0,1,0,0,0,1,0,0,0,0,1,0,2102,
scooby_state_405bf2|38|1 2102,0,0,0,0,0,0,0,0,0,0,0,0,0,0,2102,
scooby_state_405bf2|60|1 2097,0,1,0,1,1,1,0,0,1,0,0,0,0,0,2102,
scooby_state_405bf2|40|1 2099,1,0,0,0,1,0,0,1,0,0,0,0,0,0,2102,
scooby_state_405bf2|6|1 2098,0,0,0,0,0,0,0,0,0,2,1,1,0,0,2102,
scooby_state_405bf2|4|1 2099,0,0,0,1,0,0,1,0,0,0,0,1,0,0,2102,
scooby_state_405bf2|52|1 2101,0,0,0,0,1,0,0,0,0,0,0,0,0,0,2102,
scooby_state_405bf2|45|1 2099,1,0,0,0,0,0,0,0,0,2,0,0,0,0,2102,
scooby_state_405bf2|42|1 2101,0,0,0,0,0,0,0,0,0,0,0,0,1,0,2102,
scooby_state_405bf2|3|1 2099,0,0,0,0,0,0,0,1,0,0,0,1,0,1,2102,
scooby_state_405bf2|2|1 2097,0,0,0,0,1,1,1,0,1,0,0,0,0,1,2102,
scooby_state_405bf2|56|1 2099,0,1,0,1,0,0,0,0,0,0,0,0,0,1,2102,
scooby_state_405bf2|59|1 2098,1,0,1,0,0,0,0,1,0,1,0,0,0,0,2102,
scooby_state_405bf2|1|1 2100,0,0,0,0,0,0,0,0,0,0,0,1,1,0,2102,
scooby_state_405bf2|36|1 2096,1,0,0,0,0,0,1,0,1,1,0,0,0,2,2102,
scooby_state_405bf2|54|1 2097,1,0,1,0,0,0,0,1,0,0,1,1,0,0,2102,
scooby_state_405bf2|8|1 2098,0,0,0,0,0,0,1,2,0,0,0,0,1,0,2102,
scooby_state_405bf2|62|1 2100,0,0,1,0,1,0,0,0,0,0,0,0,0,0,2102,
scooby_state_405bf2|53|1 2098,1,0,0,2,0,0,0,0,1,0,0,0,0,0,2102,
scooby_state_405bf2|44|1 2098,1,0,0,0,0,0,1,1,1,0,0,0,0,0,2102,
scooby_state_405bf2|37|1 2096,0,0,0,2,0,2,0,0,0,1,0,1,0,0,2102,
scooby_state_405bf2|63|1 2101,0,0,0,0,0,0,0,0,0,0,0,1,0,0,2102,
scooby_state_405bf2|50|1 2098,0,0,0,1,1,1,0,0,0,0,0,1,0,0,2102,
scooby_state_405bf2|43|1 2101,0,0,0,0,0,0,0,0,0,0,0,0,0,1,2102,
scooby_state_405bf2|47|1 2097,0,0,0,2,2,0,0,0,0,0,0,0,0,1,2102,
scooby_state_405bf2|46|1 2099,1,0,0,1,0,0,0,0,0,0,0,1,0,0,2102,
scooby_state_405bf2|48|1 2095,1,1,0,0,0,1,0,0,0,0,2,1,0,1,2102,
scooby_state_405bf2|58|1 2101,0,0,0,1,0,0,0,0,0,0,0,0,0,0,2102,
scooby_state_405bf2|49|1 2099,0,0,0,0,0,0,0,0,1,0,0,2,0,0,2102,
scooby_state_405bf2|5|1 2099,0,0,0,0,0,0,0,0,0,1,0,1,0,1,2102,
scooby_state_405bf2|41|1 2097,0,0,1,0,1,1,0,1,0,0,0,1,0,0,2102,
scooby_state_405bf2|35|1 2098,1,1,0,0,1,0,0,0,0,1,0,0,0,0,2102,
scooby_state_405bf2|39|1 2100,0,0,0,0,0,1,0,0,1,0,0,0,0,0,2102,
scooby_state_405d32|60|1 1968,1,0,0,1,1,1,0,0,0,0,0,1,0,0,1973,
scooby_state_405d32|53|1 1970,2,0,0,0,0,0,1,0,0,0,0,0,0,0,1973,
scooby_state_405d32|51|1 1971,0,0,0,0,0,0,0,1,0,0,1,0,0,0,1973,
scooby_state_405d32|8|1 1969,0,0,1,0,0,0,0,0,0,0,2,0,1,0,1973,
scooby_state_405d32|9|1 1972,0,0,0,0,0,0,0,0,1,0,0,0,0,0,1973,
scooby_state_405d32|55|1 1967,0,0,1,0,0,0,2,1,0,1,0,1,0,0,1973,
scooby_state_405d32|2|1 1971,1,0,0,0,0,0,1,0,0,0,0,0,0,0,1973,
scooby_state_405d32|6|1 1970,1,0,1,0,0,0,0,0,0,0,0,0,1,0,1973,
scooby_state_405d32|5|1 1969,0,1,0,0,0,0,1,1,0,0,0,0,0,1,1973,
scooby_state_405d32|62|1 1969,0,0,0,0,1,0,1,0,1,0,0,0,1,0,1973,
scooby_state_405d32|58|1 1970,0,0,0,1,0,0,0,0,1,0,1,0,0,0,1973,
scooby_state_405d32|56|1 1969,0,1,0,0,0,0,0,0,0,1,1,1,0,0,1973,
scooby_state_405d32|52|1 1967,0,0,1,2,0,0,0,1,0,0,1,0,1,0,1973,
scooby_state_405d32|4|1 1968,0,0,0,1,0,0,0,1,0,1,1,1,0,0,1973,
scooby_state_405d32|0|0 1967,0,0,0,0,0,0,0,1,1,0,1,1,1,1,1973,
scooby_state_405d32|59|1 1968,1,1,1,0,0,0,0,0,0,0,0,1,1,0,1973,
scooby_state_405d32|50|1 1970,0,1,0,0,0,0,1,0,0,0,0,1,0,0,1973,
scooby_state_405d32|1|1 1964,0,0,0,1,0,1,2,0,0,0,3,1,1,0,1973,
scooby_state_405d32|3|1 1973,0,0,0,0,0,0,0,0,0,0,0,0,0,0,1973,
scooby_state_405d32|54|1 1971,0,0,1,0,0,0,0,0,0,0,0,1,0,0,1973,
scooby_state_405d32|57|1 1969,1,0,0,0,0,0,0,1,0,1,0,0,0,1,1973,
scooby_state_405d32|63|1 1969,1,1,0,0,1,0,0,0,0,0,0,0,0,1,1973,
scooby_state_405d32|61|1 1969,0,1,0,0,0,1,1,0,0,0,0,0,0,1,1973,
scooby_state_405d32|7|1 1970,0,0,0,0,0,0,0,1,0,0,0,1,0,1,1973,
scooby_state_405bf2|19|1 1969,0,0,0,0,0,1,0,1,0,0,0,0,0,0,1971,
scooby_state_405bf2|10|1 1970,0,0,0,0,0,1,0,0,0,0,0,0,0,0,1971,
scooby_state_405bf2|27|1 1964,1,0,2,1,0,0,1,0,0,0,1,1,0,0,1971,
scooby_state_405bf2|11|1 1969,0,0,1,0,0,0,1,0,0,0,0,0,0,0,1971,
scooby_state_405bf2|15|1 1966,0,2,0,0,1,0,0,0,1,0,1,0,0,0,1971,
scooby_state_405bf2|16|1 1969,1,0,0,1,0,0,0,0,0,0,0,0,0,0,1971,
scooby_state_405bf2|21|1 1970,0,0,0,1,0,0,0,0,0,0,0,0,0,0,1971,
scooby_state_405bf2|13|1 1968,1,0,1,0,0,0,0,1,0,0,0,0,0,0,1971,
scooby_state_405bf2|24|1 1969,0,0,0,1,0,0,0,0,1,0,0,0,0,0,1971,
scooby_state_405bf2|12|1 1971,0,0,0,0,0,0,0,0,0,0,0,0,0,0,1971,
scooby_state_405bf2|14|1 1968,0,0,0,0,0,0,0,0,1,1,1,0,0,0,1971,
scooby_state_405bf2|17|1 1964,3,1,1,0,1,1,0,0,0,0,0,0,0,0,1971,
scooby_state_405bf2|23|1 1968,0,0,0,0,0,0,0,0,1,0,0,2,0,0,1971,
scooby_state_405bf2|18|1 1966,1,0,0,0,1,1,0,0,1,0,0,0,0,1,1971,
scooby_state_405bf2|26|1 1963,0,1,0,1,1,0,0,1,1,0,1,2,0,0,1971,
scooby_state_405bf2|22|1 1967,0,0,0,0,1,0,1,1,0,1,0,0,0,0,1971,
scooby_state_405bf2|20|1 1968,0,1,0,1,0,0,0,0,1,0,0,0,0,0,1971,
scooby_state_405bf2|28|1 1967,0,2,0,0,0,1,0,0,0,0,0,1,0,0,1971,
scooby_state_405bf2|25|1 1968,0,0,0,0,2,0,0,0,0,0,0,0,1,0,1971,
scooby_state_405bf2|29|1 1968,0,0,0,0,0,0,0,0,0,0,2,0,0,0,1970,
scooby_state_405bf2|30|1 1963,1,1,1,2,0,1,0,0,0,0,1,0,0,0,1970,
scooby_state_405bf2|32|1 1967,0,1,0,0,0,0,0,1,0,0,0,0,1,0,1970,
scooby_state_405bf2|31|1 1969,0,1,0,0,0,0,0,0,0,0,0,0,0,0,1970,
scooby_state_405bf2|33|1 1967,1,0,0,0,0,1,0,0,1,0,0,0,0,0,1970,
scooby_state_405cac|16|1 1227,0,0,0,0,0,0,0,0,0,0,0,0,0,1,1228,
scooby_state_405dec|56|1 1215,0,0,0,0,0,0,0,0,0,0,0,0,0,0,1215,
scooby_state_405cac|38|1 1208,0,0,2,1,0,0,0,0,0,0,0,0,0,0,1211,
scooby_state_405cac|27|1 1209,0,0,0,0,0,0,0,0,0,0,0,0,0,1,1210,
scooby_state_405dec|23|1 1206,0,0,1,0,0,0,0,0,0,0,0,1,0,1,1209,
scooby_state_405cac|60|1 1201,0,1,0,1,0,0,0,1,1,0,0,0,0,0,1205,
scooby_state_405dec|12|1 1196,1,0,0,0,0,0,0,0,0,1,0,0,0,0,1198,
scooby_state_405cac|7|1 1195,0,0,0,0,0,0,0,0,0,0,0,0,1,0,1196,
scooby_state_405dec|14|1 1194,0,0,0,0,0,0,0,0,0,0,1,0,0,0,1195,
scooby_state_405dec|3|1 1192,1,0,0,0,1,0,0,0,1,0,0,0,0,0,1195,
scooby_state_405dec|45|1 1192,0,0,0,0,0,0,0,0,0,1,0,1,0,0,1194,
scooby_state_405cac|49|1 1186,0,0,0,1,1,0,1,0,0,0,0,0,0,1,1190,
scooby_state_405dec|32|1 1180,1,2,0,1,0,0,0,0,0,0,0,0,0,0,1184,
scooby_state_405dec|54|1 1181,0,0,0,0,0,0,0,0,1,0,0,0,0,0,1182,
scooby_state_405dec|48|1 1180,1,0,0,0,0,0,0,0,0,0,0,1,0,0,1182,
scooby_state_405dec|21|1 1179,0,0,0,0,0,0,0,0,0,0,0,0,0,1,1180,
scooby_state_405dec|34|1 1176,1,0,0,0,0,0,1,0,0,0,0,1,0,0,1179,
scooby_state_405cac|63|1 1177,0,0,0,0,0,0,0,0,0,0,1,0,0,0,1178,
scooby_state_405cac|52|1 1174,0,0,0,0,0,0,0,1,0,0,0,0,0,2,1177,
scooby_state_405cac|14|1 1175,0,0,2,0,0,0,0,0,0,0,0,0,0,0,1177,
scooby_state_405cac|3|1 1173,0,0,1,0,0,0,0,0,0,1,1,0,0,0,1176,
scooby_state_405cac|58|1 1174,0,0,0,0,0,1,0,0,0,0,0,0,0,1,1176,
scooby_state_405cac|59|1 1172,1,1,0,0,0,1,0,0,0,0,0,0,0,0,1175,
scooby_state_405cac|47|1 1173,0,0,0,0,1,0,0,0,0,0,0,0,0,1,1175,
scooby_state_405cac|5|1 1175,0,0,0,0,0,0,0,0,0,0,0,0,0,0,1175,
scooby_state_405cac|18|1 1171,0,0,0,0,0,1,1,0,0,0,0,0,0,0,1173,
scooby_state_405dec|59|1 1169,0,0,0,1,1,0,0,0,0,0,0,0,0,0,1171,
scooby_state_405dec|10|1 1167,0,0,0,0,1,0,2,0,0,0,0,0,0,0,1170,
scooby_state_405cac|40|1 1168,0,0,0,0,0,0,0,1,0,0,0,0,0,0,1169,
scooby_state_405cac|35|1 1165,1,1,1,0,0,0,0,0,0,0,0,0,0,0,1168,
scooby_state_405cac|4|1 1164,0,0,0,0,0,0,0,0,1,0,0,0,0,0,1165,
scooby_state_405cac|46|1 1161,0,0,0,1,1,0,0,0,0,1,0,0,1,0,1165,
scooby_state_405dec|25|1 1161,1,0,2,0,0,0,0,0,0,0,0,0,0,1,1165,
scooby_state_405dec|43|1 1164,0,0,0,1,0,0,0,0,0,0,0,0,0,0,1165,
scooby_state_405cac|17|1 1159,0,0,0,0,0,1,0,0,2,0,0,0,0,0,1162,
scooby_state_405cac|25|1 1160,0,0,0,0,0,0,0,0,0,0,1,0,0,1,1162,
scooby_state_405dec|37|1 1157,0,0,1,0,0,0,0,0,1,0,2,0,0,0,1161,
scooby_state_405cac|54|1 1158,0,0,0,0,0,0,0,0,0,1,1,0,1,0,1161,
scooby_state_405cac|29|1 1158,0,0,0,0,0,0,0,1,0,0,0,0,1,0,1160,
scooby_state_405cac|12|1 1157,0,0,0,0,0,0,0,0,0,0,0,0,0,1,1158,
scooby_state_405cac|20|1 1155,1,0,0,1,0,0,0,0,0,0,0,0,0,0,1157,
scooby_state_405cac|41|1 1155,0,0,0,1,0,0,1,0,0,0,0,0,0,0,1157,
scooby_state_405dec|11|1 1154,0,0,0,0,0,1,1,0,0,0,0,0,0,1,1157,
scooby_state_405cac|36|1 1152,0,0,0,0,0,1,1,1,1,0,0,0,0,0,1156,
scooby_state_405dec|44|1 1155,0,0,0,1,0,0,0,0,0,0,0,0,0,0,1156,
scooby_state_405dec|53|1 1153,0,0,0,2,0,0,0,0,0,0,0,0,0,0,1155,
scooby_state_405cac|43|1 1153,0,0,0,0,1,0,0,0,0,0,0,0,0,0,1154,
scooby_state_405dec|63|1 1151,0,0,0,1,0,0,0,0,0,0,0,0,0,0,1152,
scooby_state_405cac|32|1 1150,0,1,0,0,0,0,0,0,0,0,0,0,1,0,1152,
scooby_state_405dec|36|1 1151,0,0,0,1,0,0,0,0,0,0,0,0,0,0,1152,
scooby_state_405cac|50|1 1150,1,0,0,0,0,0,0,0,0,0,0,0,1,0,1152,
scooby_state_405cac|21|1 1149,0,0,0,0,0,0,0,0,0,0,1,0,0,0,1150,
scooby_state_405dec|13|1 1149,0,0,0,0,0,0,0,0,0,0,0,0,0,0,1149,
scooby_state_405cac|34|1 1149,0,0,0,0,0,0,0,0,0,0,0,0,0,0,1149,
scooby_state_405cac|48|1 1143,1,0,0,1,0,2,0,0,0,0,1,0,0,0,1148,
scooby_state_405dec|6|1 1148,0,0,0,0,0,0,0,0,0,0,0,0,0,0,1148,
scooby_state_405cac|26|1 1145,1,1,0,0,0,1,0,0,0,0,0,0,0,0,1148,
scooby_state_405dec|55|1 1146,0,0,0,0,0,0,1,0,0,0,0,0,0,0,1147,
scooby_state_405dec|24|1 1145,0,0,0,0,0,0,0,0,0,1,0,0,0,1,1147,
scooby_state_405dec|47|1 1143,0,0,0,0,1,0,0,0,0,0,1,1,0,1,1147,
scooby_state_405cac|56|1 1146,0,0,0,0,0,0,0,0,0,0,0,0,0,0,1146,
scooby_state_405dec|20|1 1146,0,0,0,0,0,0,0,0,0,0,0,0,0,0,1146,
scooby_state_405dec|52|1 1144,0,0,1,0,0,0,0,0,0,0,0,0,0,0,1145,
scooby_state_405cac|31|1 1143,0,1,0,0,0,0,0,0,0,0,0,0,0,0,1144,
scooby_state_405cac|23|1 1138,0,0,0,0,0,0,0,0,0,0,2,1,0,1,1142,
scooby_state_405cac|51|1 1141,0,0,0,0,0,0,0,0,0,0,0,0,1,0,1142,
scooby_state_405cac|10|1 1140,0,0,0,1,0,0,0,0,0,0,0,1,0,0,1142,
scooby_state_405cac|6|1 1137,0,0,1,1,1,0,1,0,0,0,0,0,0,0,1141,
scooby_state_405cac|62|1 1141,0,0,0,0,0,0,0,0,0,0,0,0,0,0,1141,
scooby_state_405dec|39|1 1137,0,0,1,0,1,0,0,0,1,0,0,0,0,0,1140,
scooby_state_405cac|30|1 1137,0,0,0,1,0,1,0,0,0,0,0,0,0,0,1139,
scooby_state_405dec|57|1 1135,0,0,0,1,0,0,1,0,0,1,0,0,0,0,1138,
scooby_state_405cac|57|1 1137,0,0,0,0,0,0,0,0,0,0,0,0,0,0,1137,
scooby_state_405cac|37|1 1134,0,0,0,0,0,0,0,0,0,1,0,1,0,0,1136,
scooby_state_405dec|17|1 1133,1,0,1,0,0,0,0,1,0,0,0,0,0,0,1136,
scooby_state_405cac|39|1 1136,0,0,0,0,0,0,0,0,0,0,0,0,0,0,1136,
scooby_state_405dec|41|1 1132,0,0,0,0,0,1,0,0,0,0,0,1,1,0,1135,
scooby_state_405dec|31|1 1132,0,0,1,1,0,0,0,0,0,0,1,0,0,0,1135,
scooby_state_405dec|28|1 1132,0,0,0,1,0,0,0,0,0,0,0,0,0,0,1133,
scooby_state_405dec|27|1 1130,0,0,0,0,0,1,0,0,0,0,0,0,0,0,1131,
scooby_state_405cac|8|1 1130,0,0,0,0,0,0,0,0,0,0,0,0,0,0,1130,
scooby_state_405dec|42|1 1127,0,0,0,0,1,0,0,1,0,0,0,1,0,0,1130,
scooby_state_405cac|45|1 1129,0,0,0,0,0,0,0,0,0,0,0,0,0,0,1129,
scooby_state_405cac|55|1 1128,0,0,0,0,0,0,0,0,1,0,0,0,0,0,1129,
scooby_state_405cac|19|1 1123,1,0,0,0,1,0,2,0,0,0,2,0,0,0,1129,
scooby_state_405dec|35|1 1126,0,0,0,0,0,0,0,0,1,0,0,0,0,0,1127,
scooby_state_405dec|4|1 1126,0,0,0,0,0,0,0,0,0,0,0,1,0,0,1127,
scooby_state_405cac|13|1 1127,0,0,0,0,0,0,0,0,0,0,0,0,0,0,1127,
scooby_state_405dec|0|0 1126,0,0,0,0,0,0,0,0,0,0,0,0,1,0,1127,
scooby_state_405cac|42|1 1124,0,0,0,1,0,0,0,0,0,1,0,0,0,0,1126,
scooby_state_405dec|60|1 1124,0,0,0,0,1,0,0,0,0,0,0,1,0,0,1126,
scooby_state_405dec|9|1 1120,1,0,0,1,0,0,1,1,0,0,0,0,1,0,1125,
scooby_state_405cac|61|1 1124,0,0,0,1,0,0,0,0,0,0,0,0,0,0,1125,
scooby_state_405dec|50|1 1119,0,1,0,1,0,1,0,0,0,2,0,0,0,0,1124,
scooby_state_405cac|22|1 1123,0,0,0,0,0,1,0,0,0,0,0,0,0,0,1124,
scooby_state_405dec|19|1 1122,0,0,0,0,0,0,0,0,2,0,0,0,0,0,1124,
scooby_state_405dec|26|1 1122,0,0,0,0,0,0,1,0,0,0,0,0,0,0,1123,
scooby_state_405dec|1|1 1120,0,0,0,0,1,0,0,1,0,0,0,0,0,1,1123,
scooby_state_405cac|53|1 1120,0,0,1,1,0,0,0,0,0,0,0,0,0,0,1122,
scooby_state_405cac|28|1 1118,0,1,0,0,0,1,0,0,0,0,1,1,0,0,1122,
scooby_state_405cac|11|1 1120,0,0,0,0,0,0,0,0,0,0,0,0,0,1,1121,
scooby_state_405dec|22|1 1119,0,0,0,0,0,0,1,0,0,0,0,0,0,0,1120,
scooby_state_405dec|33|1 1116,0,0,0,0,0,0,0,0,0,1,0,0,1,0,1118,
scooby_state_405cac|44|1 1116,0,0,0,0,0,0,1,0,0,0,0,0,0,1,1118,
scooby_state_405cac|9|1 1114,0,0,0,0,0,0,0,0,0,0,0,0,0,1,1115,
scooby_state_405dec|30|1 1113,0,0,0,0,0,0,0,0,0,0,1,0,0,0,1114,
scooby_state_405cac|24|1 1111,0,1,0,0,0,2,0,0,0,0,0,0,0,0,1114,
scooby_state_405dec|15|1 1113,0,0,0,0,0,0,0,0,0,1,0,0,0,0,1114,
scooby_state_405dec|49|1 1110,1,0,0,0,0,0,0,0,0,0,0,0,0,0,1111,
scooby_state_405dec|16|1 1110,0,0,0,0,0,0,0,0,0,1,0,0,0,0,1111,
scooby_state_405cac|0|0 1109,0,0,0,0,0,0,0,0,0,0,0,1,0,0,1110,
scooby_state_405dec|5|1 1108,0,1,1,0,0,0,0,0,0,0,0,0,0,0,1110,
scooby_state_405dec|38|1 1107,0,1,0,0,0,0,0,0,0,0,0,1,0,0,1109,
scooby_state_405dec|29|1 1105,1,0,0,0,1,0,0,0,0,0,0,0,0,1,1108,
scooby_state_405cac|15|1 1105,0,0,0,0,0,0,0,2,0,0,0,0,0,1,1108,
scooby_state_405dec|58|1 1105,0,0,0,0,0,0,0,0,1,0,0,0,1,0,1107,
scooby_state_405dec|7|1 1103,0,0,0,0,0,0,0,0,0,0,0,1,1,1,1106,
scooby_state_405dec|62|1 1099,0,0,0,0,1,0,0,0,0,0,0,0,1,0,1101,
scooby_state_405dec|40|1 1100,0,0,0,0,0,1,0,0,0,0,0,0,0,0,1101,
scooby_state_405dec|2|1 1097,0,0,1,0,0,1,0,0,0,0,0,0,1,0,1100,
scooby_state_405dec|61|1 1096,0,0,1,0,0,1,1,0,0,0,1,0,0,0,1100,
scooby_state_405dec|46|1 1096,0,0,1,0,0,0,0,0,0,0,0,0,0,1,1098,
scooby_state_405dec|8|1 1094,1,0,0,0,0,0,0,0,0,0,0,1,0,0,1096,
scooby_state_405dec|51|1 1092,0,0,0,0,0,0,1,0,1,0,0,0,1,0,1095,
scooby_state_405cac|2|1 1077,0,0,0,1,0,0,0,0,0,0,1,0,0,0,1079,
scooby_state_405cac|33|1 1076,0,0,1,0,0,0,0,0,0,0,0,1,0,1,1079,
scooby_state_405dec|18|1 1072,0,0,1,1,0,0,0,0,1,0,0,0,0,0,1075,
scooby_state_405cac|1|1 1004,0,0,0,0,0,0,0,0,1,0,0,0,1,0,1006,
scooby_state_405acd|20|1 1,1,2,1,1,1,1,1,1,1,1,1,119,0,0,132,
scooby_state_405b8e|4|0 132,0,0,0,0,0,0,0,0,0,0,0,0,0,0,132,
scooby_state_405d1d|14|3 132,0,0,0,0,0,0,0,0,0,0,0,0,0,0,132,
scooby_state_405e1a|21|0 131,0,0,0,0,0,0,0,0,0,1,0,0,0,0,132,
scooby_state_405bf2|33|0 132,0,0,0,0,0,0,0,0,0,0,0,0,0,0,132,
scooby_state_404bb7|58|0 9,10,10,9,6,6,6,6,7,6,6,8,9,10,24,132,
scooby_state_404a74|8|1 16,1,1,1,1,1,110,0,0,0,0,0,0,1,0,132,
scooby_state_405bd6|16|-1 1,1,130,0,0,0,0,0,0,0,0,0,0,0,0,132,
scooby_state_4043c6|6|1 1,1,1,1,128,0,0,0,0,0,0,0,0,0,0,132,
scooby_state_404375|5|-3 132,0,0,0,0,0,0,0,0,0,0,0,0,0,0,132,
scooby_state_404a26|7|-13 132,0,0,0,0,0,0,0,0,0,0,0,0,0,0,132,
scooby_state_405bc0|17|11 78,53,0,0,0,0,0,0,0,0,0,0,1,0,0,132,
scooby_state_405bdd|15|-1 35,68,18,11,0,0,0,0,0,0,0,0,0,0,0,132,
scooby_state_405ac3|19|5 131,0,0,0,0,0,0,0,0,0,0,0,0,0,0,131,
scooby_state_405d00|12|-3 1,28,1,1,1,1,1,1,1,1,1,93,0,0,0,131,
scooby_state_405cd4|4|0 7,6,6,6,6,7,9,7,7,7,7,7,7,4,38,131,
scooby_state_405ce9|21|-1 108,2,6,2,2,1,1,1,1,1,1,2,1,1,1,131,
scooby_state_405d16|11|-1 131,0,0,0,0,0,0,0,0,0,0,0,0,0,0,131,
scooby_state_405afe|20|-1 1,129,0,0,0,0,0,0,0,0,0,0,0,0,0,130,
scooby_state_405b0d|23|3 130,0,0,0,0,0,0,0,0,0,0,0,0,0,0,130,
scooby_state_405ce0|22|-1 129,0,0,0,0,0,0,0,0,0,0,0,0,0,0,129,
scooby_state_404be8|22|0 8,0,0,0,0,0,0,0,0,0,0,0,0,0,0,8,
scooby_state_404580|15|0 0,0,0,0,1,1,1,1,1,1,1,1,0,0,0,8,
scooby_state_404561|1|0 0,3,0,0,0,0,0,0,1,1,1,1,1,0,0,8,
scooby_state_404bfc|24|0 1,0,0,0,0,0,0,0,0,0,0,1,1,1,4,8,
scooby_state_404be8|50|0 8,0,0,0,0,0,0,0,0,0,0,0,0,0,0,8,
scooby_state_404552|32|0 8,0,0,0,0,0,0,0,0,0,0,0,0,0,0,8,
scooby_state_40451c|16|0 0,0,0,0,0,1,1,0,0,0,0,4,1,1,0,8,
scooby_state_404ba3|16|0 1,0,1,0,0,0,0,1,0,1,0,0,1,0,3,8,
scooby_state_40450c|52|0 2,0,0,0,0,1,1,1,1,1,1,0,0,0,0,8,
scooby_state_404552|46|0 8,0,0,0,0,0,0,0,0,0,0,0,0,0,0,8,
scooby_state_40451c|52|33 8,0,0,0,0,0,0,0,0,0,0,0,0,0,0,8,
scooby_state_40450c|53|0 1,0,0,0,0,0,0,0,0,0,0,1,1,1,4,8,
scooby_state_404561|29|0 0,0,0,0,0,0,8,0,0,0,0,0,0,0,0,8,
scooby_state_404be8|21|0 8,0,0,0,0,0,0,0,0,0,0,0,0,0,0,8,
scooby_state_404ba3|60|0 1,0,1,1,0,0,0,1,0,1,0,1,1,0,1,8,
scooby_state_404578|47|0 8,0,0,0,0,0,0,0,0,0,0,0,0,0,0,8,
scooby_state_404578|63|0 8,0,0,0,0,0,0,0,0,0,0,0,0,0,0,8,
scooby_state_40451c|18|0 3,0,0,0,0,0,0,1,0,1,0,0,0,0,3,8,
scooby_state_404578|11|0 8,0,0,0,0,0,0,0,0,0,0,0,0,0,0,8,
scooby_state_404561|2|0 1,3,1,1,0,0,0,0,0,0,0,0,0,1,1,8,
scooby_state_404561|15|0 0,3,0,0,0,0,0,0,1,1,1,1,0,0,1,8,
scooby_state_404be8|58|0 8,0,0,0,0,0,0,0,0,0,0,0,0,0,0,8,
scooby_state_404be8|51|0 8,0,0,0,0,0,0,0,0,0,0,0,0,0,0,8,
scooby_state_404561|16|0 0,3,1,0,0,1,1,1,0,0,0,0,0,0,1,8,
scooby_state_404578|10|0 8,0,0,0,0,0,0,0,0,0,0,0,0,0,0,8,
scooby_state_40451c|53|33 8,0,0,0,0,0,0,0,0,0,0,0,0,0,0,8,
scooby_state_404580|32|0 0,8,0,0,0,0,0,0,0,0,0,0,0,0,0,8,
scooby_state_404561|14|0 1,2,1,1,1,0,0,0,0,0,0,0,1,1,0,8,
scooby_state_404578|48|0 8,0,0,0,0,0,0,0,0,0,0,0,0,0,0,8,
scooby_state_404578|59|0 8,0,0,0,0,0,0,0,0,0,0,0,0,0,0,8,
scooby_state_40451c|21|0 0,0,0,0,0,0,1,1,1,1,1,1,1,1,0,8,
scooby_state_404ba3|59|0 0,0,0,0,0,0,0,1,1,1,1,1,1,1,1,8,
scooby_state_404561|13|0 0,3,0,0,0,0,0,0,1,1,1,1,0,0,1,8,
scooby_state_404ba3|58|0 2,1,1,1,1,1,1,0,0,0,0,0,0,0,0,8,
scooby_state_404bfc|23|0 1,0,0,0,1,1,1,1,1,1,1,0,0,0,0,8,
scooby_state_40451c|22|0 0,0,0,0,0,0,1,1,0,1,1,0,1,1,2,8,
scooby_state_404578|13|0 8,0,0,0,0,0,0,0,0,0,0,0,0,0,0,8,
scooby_state_40450c|16|0 8,0,0,0,0,0,0,0,0,0,0,0,0,0,0,8,
scooby_state_40450c|45|0 8,0,0,0,0,0,0,0,0,0,0,0,0,0,0,8,
scooby_state_404ba3|40|0 1,0,0,0,1,1,0,0,1,1,1,0,0,0,2,8,
scooby_state_404561|0|0 0,4,0,0,1,1,1,1,0,0,0,0,0,0,0,8,
scooby_state_404be8|23|0 8,0,0,0,0,0,0,0,0,0,0,0,0,0,0,8,
scooby_state_40450c|20|0 8,0,0,0,0,0,0,0,0,0,0,0,0,0,0,8,
scooby_state_404578|45|0 8,0,0,0,0,0,0,0,0,0,0,0,0,0,0,8,
scooby_state_404578|14|0 8,0,0,0,0,0,0,0,0,0,0,0,0,0,0,8,
scooby_state_404580|16|0 0,0,0,0,1,0,0,1,1,1,1,0,1,1,1,8,
scooby_state_40450c|47|0 8,0,0,0,0,0,0,0,0,0,0,0,0,0,0,8,
scooby_state_404be8|60|0 8,0,0,0,0,0,0,0,0,0,0,0,0,0,0,8,
scooby_state_404ba3|19|0 0,0,0,1,1,1,1,0,1,0,1,1,0,1,0,8,
scooby_state_404561|30|0 0,0,0,0,0,0,8,0,0,0,0,0,0,0,0,8,
scooby_state_404552|61|0 8,0,0,0,0,0,0,0,0,0,0,0,0,0,0,8,
scooby_state_404578|61|0 8,0,0,0,0,0,0,0,0,0,0,0,0,0,0,8,
scooby_state_404552|60|0 8,0,0,0,0,0,0,0,0,0,0,0,0,0,0,8,
scooby_state_40450c|19|0 8,0,0,0,0,0,0,0,0,0,0,0,0,0,0,8,
scooby_state_40451c|17|0 1,1,1,1,1,0,0,0,1,0,1,0,0,0,1,8,
scooby_state_40450c|48|0 8,0,0,0,0,0,0,0,0,0,0,0,0,0,0,8,
scooby_state_404bfc|33|0 8,0,0,0,0,0,0,0,0,0,0,0,0,0,0,8,
scooby_state_404be8|25|0 8,0,0,0,0,0,0,0,0,0,0,0,0,0,0,8,
scooby_state_404be8|61|0 8,0,0,0,0,0,0,0,0,0,0,0,0,0,0,8,
scooby_state_404561|31|0 0,0,0,0,0,0,8,0,0,0,0,0,0,0,0,8,
scooby_state_40451c|49|33 8,0,0,0,0,0,0,0,0,0,0,0,0,0,0,8,
scooby_state_404580|17|0 0,0,0,0,0,0,0,0,0,0,0,0,7,0,1,8,
scooby_state_404bfc|34|0 8,0,0,0,0,0,0,0,0,0,0,0,0,0,0,8,
scooby_state_404552|59|0 8,0,0,0,0,0,0,0,0,0,0,0,0,0,0,8,
scooby_state_40451c|51|33 8,0,0,0,0,0,0,0,0,0,0,0,0,0,0,8,
scooby_state_404561|28|0 0,0,0,0,0,0,8,0,0,0,0,0,0,0,0,8,
scooby_state_404ba3|37|0 0,0,0,1,1,1,1,0,1,0,1,0,0,1,1,8,
scooby_state_40451c|14|0 0,1,1,0,0,1,0,0,0,1,1,0,1,1,1,8,
scooby_state_404578|60|0 8,0,0,0,0,0,0,0,0,0,0,0,0,0,0,8,
scooby_state_40451c|23|0 1,1,1,1,1,1,0,0,1,0,0,1,0,0,0,8,
scooby_state_404bfc|25|0 5,0,0,0,0,0,0,0,0,0,0,0,1,0,2,8,
scooby_state_40451c|15|0 1,0,0,1,1,0,0,1,1,1,0,1,0,0,1,8,
scooby_state_404bfc|62|0 8,0,0,0,0,0,0,0,0,0,0,0,0,0,0,8,
scooby_state_404ba3|17|0 0,0,0,1,1,1,1,0,1,0,1,1,0,0,1,8,
scooby_state_40450c|46|0 8,0,0,0,0,0,0,0,0,0,0,0,0,0,0,8,
scooby_state_404552|45|0 8,0,0,0,0,0,0,0,0,0,0,0,0,0,0,8,
scooby_state_40451c|50|33 8,0,0,0,0,0,0,0,0,0,0,0,0,0,0,8,
scooby_state_404580|28|0 0,8,0,0,0,0,0,0,0,0,0,0,0,0,0,8,
scooby_state_404be8|59|0 8,0,0,0,0,0,0,0,0,0,0,0,0,0,0,8,
scooby_state_404580|29|0 0,8,0,0,0,0,0,0,0,0,0,0,0,0,0,8,
scooby_state_404bfc|32|0 8,0,0,0,0,0,0,0,0,0,0,0,0,0,0,8,
scooby_state_404552|31|0 8,0,0,0,0,0,0,0,0,0,0,0,0,0,0,8,
scooby_state_404ba3|41|0 0,1,1,1,0,0,1,1,0,0,0,1,0,1,1,8,
scooby_state_40451c|19|0 0,1,0,0,1,1,1,0,0,0,1,1,0,1,1,8,
scooby_state_40450c|18|0 8,0,0,0,0,0,0,0,0,0,0,0,0,0,0,8,
scooby_state_404ba3|18|0 1,1,1,0,0,0,0,1,0,1,0,0,1,0,2,8,
scooby_state_404bfc|31|0 8,0,0,0,0,0,0,0,0,0,0,0,0,0,0,8,
scooby_state_404552|44|0 8,0,0,0,0,0,0,0,0,0,0,0,0,0,0,8,
scooby_state_404ba3|38|0 1,1,1,0,0,0,0,0,0,0,0,1,1,0,3,8,
scooby_state_404552|33|0 8,0,0,0,0,0,0,0,0,0,0,0,0,0,0,8,
scooby_state_404552|47|0 8,0,0,0,0,0,0,0,0,0,0,0,0,0,0,8,
scooby_state_404578|46|0 8,0,0,0,0,0,0,0,0,0,0,0,0,0,0,8,
scooby_state_40450c|54|0 6,0,0,0,0,1,0,0,0,0,0,0,0,0,1,8,
scooby_state_404552|62|0 8,0,0,0,0,0,0,0,0,0,0,0,0,0,0,8,
scooby_state_404580|31|0 0,8,0,0,0,0,0,0,0,0,0,0,0,0,0,8,
scooby_state_404ba3|15|0 1,1,1,0,0,0,0,0,0,0,0,1,0,1,3,8,
scooby_state_404ba3|61|0 0,1,0,0,1,1,0,0,0,0,0,0,0,1,4,8,
scooby_state_404bfc|61|0 7,1,0,0,0,0,0,0,0,0,0,0,0,0,0,8,
scooby_state_404be8|24|0 8,0,0,0,0,0,0,0,0,0,0,0,0,0,0,8,
scooby_state_404bfc|58|0 7,1,0,0,0,0,0,0,0,0,0,0,0,0,0,8,
scooby_state_404552|48|0 8,0,0,0,0,0,0,0,0,0,0,0,0,0,0,8,
scooby_state_404ba3|39|0 0,0,1,1,0,0,1,1,0,0,0,1,1,1,1,8,
scooby_state_404578|62|0 8,0,0,0,0,0,0,0,0,0,0,0,0,0,0,8,
scooby_state_404bfc|60|0 8,0,0,0,0,0,0,0,0,0,0,0,0,0,0,8,
scooby_state_40450c|17|0 8,0,0,0,0,0,0,0,0,0,0,0,0,0,0,8,
scooby_state_404561|17|0 1,2,0,1,1,0,0,0,0,0,0,0,1,1,1,8,
scooby_state_40450c|49|0 8,0,0,0,0,0,0,0,0,0,0,0,0,0,0,8,
scooby_state_404be8|62|0 8,0,0,0,0,0,0,0,0,0,0,0,0,0,0,8,
scooby_state_404bfc|59|0 6,2,0,0,0,0,0,0,0,0,0,0,0,0,0,8,
scooby_state_404bfc|35|0 8,0,0,0,0,0,0,0,0,0,0,0,0,0,0,8,
scooby_state_404561|32|0 0,0,0,0,0,0,8,0,0,0,0,0,0,0,0,8,
scooby_state_404552|63|0 8,0,0,0,0,0,0,0,0,0,0,0,0,0,0,8,
scooby_state_404580|30|0 0,8,0,0,0,0,0,0,0,0,0,0,0,0,0,8,
scooby_state_404561|3|0 0,3,0,0,1,1,1,1,0,0,0,0,0,0,1,8,
scooby_state_404578|12|0 8,0,0,0,0,0,0,0,0,0,0,0,0,0,0,8,
scooby_state_404be8|52|0 8,0,0,0,0,0,0,0,0,0,0,0,0,0,0,8,
scooby_state_40450c|50|0 7,0,0,0,0,0,0,0,0,0,0,0,0,0,0,7,
scooby_state_40450c|51|0 3,1,1,1,1,0,0,0,0,0,0,0,0,0,0,7,
scooby_state_404552|30|0 7,0,0,0,0,0,0,0,0,0,0,0,0,0,0,7,
scooby_state_404580|18|0 0,2,1,1,0,0,0,0,0,0,0,1,2,0,0,7,
scooby_state_404561|18|0 0,2,0,0,0,0,3,0,0,0,1,1,0,0,0,7,
scooby_state_404ba3|42|0 0,1,0,0,1,1,0,0,1,0,0,0,1,0,2,7,
scooby_state_404578|9|0 6,0,0,0,0,0,0,0,0,0,0,0,0,0,0,6,
scooby_state_404bfc|22|0 3,1,1,1,0,0,0,0,0,0,0,0,0,0,0,6,
scooby_state_404bfc|26|0 6,0,0,0,0,0,0,0,0,0,0,0,0,0,0,6,
scooby_state_404bfc|36|0 6,0,0,0,0,0,0,0,0,0,0,0,0,0,0,6,
scooby_state_40451c|24|0 3,0,0,0,0,0,1,1,0,0,0,0,0,0,1,6,
scooby_state_40450c|15|0 6,0,0,0,0,0,0,0,0,0,0,0,0,0,0,6,
scooby_state_404be8|26|0 6,0,0,0,0,0,0,0,0,0,0,0,0,0,0,6,
scooby_state_404be8|63|0 6,0,0,0,0,0,0,0,0,0,0,0,0,0,0,6,
scooby_state_404bfc|63|0 5,1,0,0,0,0,0,0,0,0,0,0,0,0,0,6,
scooby_state_404be8|53|0 6,0,0,0,0,0,0,0,0,0,0,0,0,0,0,6,
scooby_state_404be8|49|0 6,0,0,0,0,0,0,0,0,0,0,0,0,0,0,6,
scooby_state_40451c|20|0 1,1,1,1,1,1,0,0,0,0,0,0,0,0,0,6,
scooby_state_404580|46|33 0,0,0,0,0,0,0,0,0,0,0,0,5,0,0,5,
scooby_state_404580|14|0 1,1,1,1,1,0,0,0,0,0,0,0,0,0,0,5,
scooby_state_404578|58|0 5,0,0,0,0,0,0,0,0,0,0,0,0,0,0,5,
scooby_state_404580|44|33 0,0,0,0,0,0,0,0,0,0,0,0,5,0,0,5,
scooby_state_404580|45|33 0,0,0,0,0,0,0,0,0,0,0,0,5,0,0,5,
scooby_state_404552|34|0 5,0,0,0,0,0,0,0,0,0,0,0,0,0,0,5,
scooby_state_40450c|55|0 5,0,0,0,0,0,0,0,0,0,0,0,0,0,0,5,
scooby_state_404ba3|20|0 0,1,0,0,0,0,0,1,0,0,0,0,1,0,2,5,
scooby_state_404552|58|0 5,0,0,0,0,0,0,0,0,0,0,0,0,0,0,5,
scooby_state_404580|47|33 0,0,0,0,0,0,0,0,0,0,0,0,5,0,0,5,
scooby_state_40451c|48|33 5,0,0,0,0,0,0,0,0,0,0,0,0,0,0,5,
scooby_state_404580|43|33 0,0,0,0,0,0,0,0,0,0,0,0,4,0,1,5,
scooby_state_404561|63|33 1,1,1,1,0,0,0,0,0,0,0,0,0,0,0,4,
scooby_state_404552|43|0 4,0,0,0,0,0,0,0,0,0,0,0,0,0,0,4,
scooby_state_404552|49|0 4,0,0,0,0,0,0,0,0,0,0,0,0,0,0,4,
scooby_state_404578|49|0 4,0,0,0,0,0,0,0,0,0,0,0,0,0,0,4,
scooby_state_405c30|30|0 3,0,0,0,0,0,0,0,0,0,0,0,0,0,0,3,
scooby_state_404b33|47|0 3,0,0,0,0,0,0,0,0,0,0,0,0,0,0,3,
scooby_state_404b33|43|0 3,0,0,0,0,0,0,0,0,0,0,0,0,0,0,3,
scooby_state_404580|48|34 3,0,0,0,0,0,0,0,0,0,0,0,0,0,0,3,
scooby_state_404b33|57|0 3,0,0,0,0,0,0,0,0,0,0,0,0,0,0,3,
scooby_state_404b33|22|0 3,0,0,0,0,0,0,0,0,0,0,0,0,0,0,3,
scooby_state_404b33|36|0 3,0,0,0,0,0,0,0,0,0,0,0,0,0,0,3,
scooby_state_404580|46|34 3,0,0,0,0,0,0,0,0,0,0,0,0,0,0,3,
scooby_state_404b33|61|0 3,0,0,0,0,0,0,0,0,0,0,0,0,0,0,3,
scooby_state_404561|33|0 0,0,0,0,0,0,3,0,0,0,0,0,0,0,0,3,
scooby_state_404b33|54|0 3,0,0,0,0,0,0,0,0,0,0,0,0,0,0,3,
scooby_state_404ba3|62|0 0,0,0,0,0,0,1,0,1,0,1,0,0,0,0,3,
scooby_state_404b33|40|0 3,0,0,0,0,0,0,0,0,0,0,0,0,0,0,3,
scooby_state_405c30|14|0 3,0,0,0,0,0,0,0,0,0,0,0,0,0,0,3,
scooby_state_404b33|33|0 3,0,0,0,0,0,0,0,0,0,0,0,0,0,0,3,
scooby_state_405c30|63|0 3,0,0,0,0,0,0,0,0,0,0,0,0,0,0,3,
scooby_state_40451c|54|33 3,0,0,0,0,0,0,0,0,0,0,0,0,0,0,3,
scooby_state_404580|45|34 3,0,0,0,0,0,0,0,0,0,0,0,0,0,0,3,
scooby_state_404580|33|0 0,3,0,0,0,0,0,0,0,0,0,0,0,0,0,3,
scooby_state_404ba3|14|0 0,0,0,0,0,0,0,0,0,0,0,0,1,0,2,3,
scooby_state_405c30|47|0 3,0,0,0,0,0,0,0,0,0,0,0,0,0,0,3,
scooby_state_404580|42|33 0,0,0,0,0,0,0,0,0,0,0,0,3,0,0,3,
scooby_state_404b33|19|0 3,0,0,0,0,0,0,0,0,0,0,0,0,0,0,3,
scooby_state_404b33|12|0 1,1,1,0,0,0,0,0,0,0,0,0,0,0,0,3,
scooby_state_404580|33|33 0,0,0,0,0,0,0,0,0,0,0,0,3,0,0,3,
scooby_state_404578|0|0 3,0,0,0,0,0,0,0,0,0,0,0,0,0,0,3,
scooby_state_405d70|13|0 3,0,0,0,0,0,0,0,0,0,0,0,0,0,0,3,
scooby_state_404b33|4|0 0,0,0,0,0,0,0,0,0,0,0,1,1,1,0,3,
scooby_state_404561|33|33 0,3,0,0,0,0,0,0,0,0,0,0,0,0,0,3,
scooby_state_404b33|26|0 3,0,0,0,0,0,0,0,0,0,0,0,0,0,0,3,
scooby_state_404b33|29|0 3,0,0,0,0,0,0,0,0,0,0,0,0,0,0,3,
scooby_state_404b33|15|0 3,0,0,0,0,0,0,0,0,0,0,0,0,0,0,3,
scooby_state_404b33|50|0 3,0,0,0,0,0,0,0,0,0,0,0,0,0,0,3,
scooby_state_404b33|0|0 2,0,0,0,1,0,0,0,0,0,0,0,0,0,0,3,
scooby_state_404580|44|34 3,0,0,0,0,0,0,0,0,0,0,0,0,0,0,3,
scooby_state_404580|47|34 3,0,0,0,0,0,0,0,0,0,0,0,0,0,0,3,
scooby_state_404552|0|0 3,0,0,0,0,0,0,0,0,0,0,0,0,0,0,3,
scooby_state_404580|43|34 3,0,0,0,0,0,0,0,0,0,0,0,0,0,0,3,
scooby_state_404b33|37|0 2,0,0,0,0,0,0,0,0,0,0,0,0,0,0,2,
scooby_state_405d70|48|0 2,0,0,0,0,0,0,0,0,0,0,0,0,0,0,2,
scooby_state_405d70|37|0 2,0,0,0,0,0,0,0,0,0,0,0,0,0,0,2,
scooby_state_405d70|10|0 2,0,0,0,0,0,0,0,0,0,0,0,0,0,0,2,
scooby_state_405d70|19|0 2,0,0,0,0,0,0,0,0,0,0,0,0,0,0,2,
scooby_state_405d70|25|0 2,0,0,0,0,0,0,0,0,0,0,0,0,0,0,2,
scooby_state_405c30|52|0 2,0,0,0,0,0,0,0,0,0,0,0,0,0,0,2,
scooby_state_405d70|31|0 2,0,0,0,0,0,0,0,0,0,0,0,0,0,0,2,
scooby_state_405d70|45|0 2,0,0,0,0,0,0,0,0,0,0,0,0,0,0,2,
scooby_state_405c30|54|0 2,0,0,0,0,0,0,0,0,0,0,0,0,0,0,2,
scooby_state_405c30|23|0 2,0,0,0,0,0,0,0,0,0,0,0,0,0,0,2,
scooby_state_405d70|21|0 2,0,0,0,0,0,0,0,0,0,0,0,0,0,0,2,
scooby_state_404b33|32|0 2,0,0,0,0,0,0,0,0,0,0,0,0,0,0,2,
scooby_state_404b33|34|0 2,0,0,0,0,0,0,0,0,0,0,0,0,0,0,2,
scooby_state_405d70|44|0 2,0,0,0,0,0,0,0,0,0,0,0,0,0,0,2,
scooby_state_405d70|2|0 2,0,0,0,0,0,0,0,0,0,0,0,0,0,0,2,
scooby_state_405c30|56|0 2,0,0,0,0,0,0,0,0,0,0,0,0,0,0,2,
scooby_state_404b33|31|0 2,0,0,0,0,0,0,0,0,0,0,0,0,0,0,2,
scooby_state_404b33|59|0 2,0,0,0,0,0,0,0,0,0,0,0,0,0,0,2,
scooby_state_405c30|19|0 2,0,0,0,0,0,0,0,0,0,0,0,0,0,0,2,
scooby_state_405c30|39|0 2,0,0,0,0,0,0,0,0,0,0,0,0,0,0,2,
scooby_state_405d70|50|0 2,0,0,0,0,0,0,0,0,0,0,0,0,0,0,2,
scooby_state_405c30|25|0 2,0,0,0,0,0,0,0,0,0,0,0,0,0,0,2,
scooby_state_404b33|13|0 1,0,0,1,0,0,0,0,0,0,0,0,0,0,0,2,
scooby_state_405ce0|22|0 2,0,0,0,0,0,0,0,0,0,0,0,0,0,0,2,
scooby_state_405c30|12|0 2,0,0,0,0,0,0,0,0,0,0,0,0,0,0,2,
scooby_state_405d70|12|0 2,0,0,0,0,0,0,0,0,0,0,0,0,0,0,2,
scooby_state_405d70|9|0 2,0,0,0,0,0,0,0,0,0,0,0,0,0,0,2,
scooby_state_405c30|45|0 2,0,0,0,0,0,0,0,0,0,0,0,0,0,0,2,
scooby_state_404b33|55|0 2,0,0,0,0,0,0,0,0,0,0,0,0,0,0,2,
scooby_state_405d70|47|0 2,0,0,0,0,0,0,0,0,0,0,0,0,0,0,2,
scooby_state_404b33|56|0 2,0,0,0,0,0,0,0,0,0,0,0,0,0,0,2,
scooby_state_404b33|58|0 2,0,0,0,0,0,0,0,0,0,0,0,0,0,0,2,
scooby_state_404b33|60|0 2,0,0,0,0,0,0,0,0,0,0,0,0,0,0,2,
scooby_state_404b33|62|0 2,0,0,0,0,0,0,0,0,0,0,0,0,0,0,2,
scooby_state_404b33|63|0 2,0,0,0,0,0,0,0,0,0,0,0,0,0,0,2,
scooby_state_404b33|1|0 0,0,0,0,0,1,1,0,0,0,0,0,0,0,0,2,
scooby_state_404b33|52|0 2,0,0,0,0,0,0,0,0,0,0,0,0,0,0,2,
scooby_state_404b33|14|0 2,0,0,0,0,0,0,0,0,0,0,0,0,0,0,2,
scooby_state_404b33|2|0 0,0,0,0,0,0,0,1,1,0,0,0,0,0,0,2,
scooby_state_405c30|50|0 2,0,0,0,0,0,0,0,0,0,0,0,0,0,0,2,
scooby_state_405d70|51|0 2,0,0,0,0,0,0,0,0,0,0,0,0,0,0,2,
scooby_state_405c30|44|0 2,0,0,0,0,0,0,0,0,0,0,0,0,0,0,2,
scooby_state_405d70|3|0 2,0,0,0,0,0,0,0,0,0,0,0,0,0,0,2,
scooby_state_405d70|36|0 2,0,0,0,0,0,0,0,0,0,0,0,0,0,0,2,
scooby_state_405d70|5|0 2,0,0,0,0,0,0,0,0,0,0,0,0,0,0,2,
scooby_state_405d70|24|0 2,0,0,0,0,0,0,0,0,0,0,0,0,0,0,2,
scooby_state_405d70|55|0 2,0,0,0,0,0,0,0,0,0,0,0,0,0,0,2,
scooby_state_404580|48|33 0,0,0,0,1,0,0,0,0,0,0,0,1,0,0,2,
scooby_state_404b33|20|0 2,0,0,0,0,0,0,0,0,0,0,0,0,0,0,2,
scooby_state_405d70|16|0 2,0,0,0,0,0,0,0,0,0,0,0,0,0,0,2,
scooby_state_405c30|60|0 2,0,0,0,0,0,0,0,0,0,0,0,0,0,0,2,
scooby_state_404b33|39|0 2,0,0,0,0,0,0,0,0,0,0,0,0,0,0,2,
scooby_state_405d70|27|0 2,0,0,0,0,0,0,0,0,0,0,0,0,0,0,2,
scooby_state_405c30|29|0 2,0,0,0,0,0,0,0,0,0,0,0,0,0,0,2,
scooby_state_404b33|21|0 2,0,0,0,0,0,0,0,0,0,0,0,0,0,0,2,
scooby_state_405d70|6|0 2,0,0,0,0,0,0,0,0,0,0,0,0,0,0,2,
scooby_state_405c30|62|0 2,0,0,0,0,0,0,0,0,0,0,0,0,0,0,2,
scooby_state_404b33|35|0 2,0,0,0,0,0,0,0,0,0,0,0,0,0,0,2,
scooby_state_405c30|31|0 2,0,0,0,0,0,0,0,0,0,0,0,0,0,0,2,
scooby_state_404b33|42|0 2,0,0,0,0,0,0,0,0,0,0,0,0,0,0,2,
scooby_state_405c30|0|0 2,0,0,0,0,0,0,0,0,0,0,0,0,0,0,2,
scooby_state_405d70|0|0 2,0,0,0,0,0,0,0,0,0,0,0,0,0,0,2,
scooby_state_404b33|38|0 2,0,0,0,0,0,0,0,0,0,0,0,0,0,0,2,
scooby_state_405c30|2|0 2,0,0,0,0,0,0,0,0,0,0,0,0,0,0,2,
scooby_state_404b33|44|0 2,0,0,0,0,0,0,0,0,0,0,0,0,0,0,2,
scooby_state_404b33|45|0 2,0,0,0,0,0,0,0,0,0,0,0,0,0,0,2,
scooby_state_405d70|39|0 2,0,0,0,0,0,0,0,0,0,0,0,0,0,0,2,
scooby_state_405d70|4|0 2,0,0,0,0,0,0,0,0,0,0,0,0,0,0,2,
scooby_state_405c30|41|0 2,0,0,0,0,0,0,0,0,0,0,0,0,0,0,2,
scooby_state_405d70|62|0 2,0,0,0,0,0,0,0,0,0,0,0,0,0,0,2,
scooby_state_405d70|14|0 2,0,0,0,0,0,0,0,0,0,0,0,0,0,0,2,
scooby_state_404b33|48|0 2,0,0,0,0,0,0,0,0,0,0,0,0,0,0,2,
scooby_state_405d70|41|0 2,0,0,0,0,0,0,0,0,0,0,0,0,0,0,2,
scooby_state_404b33|51|0 2,0,0,0,0,0,0,0,0,0,0,0,0,0,0,2,
scooby_state_405c30|43|0 2,0,0,0,0,0,0,0,0,0,0,0,0,0,0,2,
scooby_state_404b33|27|0 2,0,0,0,0,0,0,0,0,0,0,0,0,0,0,2,
scooby_state_405d70|42|0 2,0,0,0,0,0,0,0,0,0,0,0,0,0,0,2,
scooby_state_405c30|35|0 2,0,0,0,0,0,0,0,0,0,0,0,0,0,0,2,
scooby_state_404b33|23|0 2,0,0,0,0,0,0,0,0,0,0,0,0,0,0,2,
scooby_state_405d70|59|0 2,0,0,0,0,0,0,0,0,0,0,0,0,0,0,2,
scooby_state_404bfc|30|0 1,1,0,0,0,0,0,0,0,0,0,0,0,0,0,2,
scooby_state_405c30|11|0 2,0,0,0,0,0,0,0,0,0,0,0,0,0,0,2,
scooby_state_405c30|61|0 2,0,0,0,0,0,0,0,0,0,0,0,0,0,0,2,
scooby_state_405d70|20|0 2,0,0,0,0,0,0,0,0,0,0,0,0,0,0,2,
scooby_state_405c30|58|0 2,0,0,0,0,0,0,0,0,0,0,0,0,0,0,2,
scooby_state_405c30|4|0 2,0,0,0,0,0,0,0,0,0,0,0,0,0,0,2,
scooby_state_405b0d|23|2 1,0,1,0,0,0,0,0,0,0,0,0,0,0,0,2,
scooby_state_405d70|26|0 2,0,0,0,0,0,0,0,0,0,0,0,0,0,0,2,
scooby_state_405d70|11|0 2,0,0,0,0,0,0,0,0,0,0,0,0,0,0,2,
scooby_state_405d70|58|0 2,0,0,0,0,0,0,0,0,0,0,0,0,0,0,2,
scooby_state_404578|15|0 2,0,0,0,0,0,0,0,0,0,0,0,0,0,0,2,
scooby_state_404b33|18|0 2,0,0,0,0,0,0,0,0,0,0,0,0,0,0,2,
scooby_state_405c30|33|0 2,0,0,0,0,0,0,0,0,0,0,0,0,0,0,2,
scooby_state_405c30|32|0 2,0,0,0,0,0,0,0,0,0,0,0,0,0,0,2,
scooby_state_405d70|40|0 2,0,0,0,0,0,0,0,0,0,0,0,0,0,0,2,
scooby_state_405c30|57|0 2,0,0,0,0,0,0,0,0,0,0,0,0,0,0,2,
scooby_state_405d70|35|0 2,0,0,0,0,0,0,0,0,0,0,0,0,0,0,2,
scooby_state_404561|27|0 0,0,0,0,0,0,2,0,0,0,0,0,0,0,0,2,
scooby_state_404b33|24|0 2,0,0,0,0,0,0,0,0,0,0,0,0,0,0,2,
scooby_state_405c30|28|0 2,0,0,0,0,0,0,0,0,0,0,0,0,0,0,2,
scooby_state_404b33|49|0 2,0,0,0,0,0,0,0,0,0,0,0,0,0,0,2,
scooby_state_404b33|30|0 2,0,0,0,0,0,0,0,0,0,0,0,0,0,0,2,
scooby_state_404b33|53|0 2,0,0,0,0,0,0,0,0,0,0,0,0,0,0,2,
scooby_state_40450c|21|0 2,0,0,0,0,0,0,0,0,0,0,0,0,0,0,2,
scooby_state_405c2a|5|0 2,0,0,0,0,0,0,0,0,0,0,0,0,0,0,2,
scooby_state_404b33|25|0 2,0,0,0,0,0,0,0,0,0,0,0,0,0,0,2,
scooby_state_405c30|59|0 2,0,0,0,0,0,0,0,0,0,0,0,0,0,0,2,
scooby_state_405d70|57|0 2,0,0,0,0,0,0,0,0,0,0,0,0,0,0,2,
scooby_state_404580|27|0 0,2,0,0,0,0,0,0,0,0,0,0,0,0,0,2,
scooby_state_405c30|9|0 2,0,0,0,0,0,0,0,0,0,0,0,0,0,0,2,
scooby_state_404b33|3|0 0,0,0,0,0,0,0,0,0,1,1,0,0,0,0,2,
scooby_state_405c30|26|0 2,0,0,0,0,0,0,0,0,0,0,0,0,0,0,2,
scooby_state_405d70|30|0 2,0,0,0,0,0,0,0,0,0,0,0,0,0,0,2,
scooby_state_405c30|6|0 2,0,0,0,0,0,0,0,0,0,0,0,0,0,0,2,
scooby_state_405c30|8|0 2,0,0,0,0,0,0,0,0,0,0,0,0,0,0,2,
scooby_state_405d70|52|0 2,0,0,0,0,0,0,0,0,0,0,0,0,0,0,2,
scooby_state_405d70|56|0 2,0,0,0,0,0,0,0,0,0,0,0,0,0,0,2,
scooby_state_405c30|15|0 2,0,0,0,0,0,0,0,0,0,0,0,0,0,0,2,
scooby_state_405d70|23|0 2,0,0,0,0,0,0,0,0,0,0,0,0,0,0,2,
scooby_state_405d70|15|0 2,0,0,0,0,0,0,0,0,0,0,0,0,0,0,2,
scooby_state_405d70|53|0 2,0,0,0,0,0,0,0,0,0,0,0,0,0,0,2,
scooby_state_405c30|17|0 2,0,0,0,0,0,0,0,0,0,0,0,0,0,0,2,
scooby_state_404b33|16|0 2,0,0,0,0,0,0,0,0,0,0,0,0,0,0,2,
scooby_state_404b43|45|1 2,0,0,0,0,0,0,0,0,0,0,0,0,0,0,2,
scooby_state_405d70|43|0 2,0,0,0,0,0,0,0,0,0,0,0,0,0,0,2,
scooby_state_405d6a|22|0 0,2,0,0,0,0,0,0,0,0,0,0,0,0,0,2,
scooby_state_405c30|27|0 2,0,0,0,0,0,0,0,0,0,0,0,0,0,0,2,
scooby_state_405d70|34|0 2,0,0,0,0,0,0,0,0,0,0,0,0,0,0,2,
scooby_state_404be8|20|0 2,0,0,0,0,0,0,0,0,0,0,0,0,0,0,2,
scooby_state_404b33|46|0 2,0,0,0,0,0,0,0,0,0,0,0,0,0,0,2,
scooby_state_404bfc|57|0 2,0,0,0,0,0,0,0,0,0,0,0,0,0,0,2,
scooby_state_405d70|61|0 2,0,0,0,0,0,0,0,0,0,0,0,0,0,0,2,
scooby_state_404b33|17|0 2,0,0,0,0,0,0,0,0,0,0,0,0,0,0,2,
scooby_state_405d70|32|0 2,0,0,0,0,0,0,0,0,0,0,0,0,0,0,2,
scooby_state_405d70|46|0 2,0,0,0,0,0,0,0,0,0,0,0,0,0,0,2,
scooby_state_405c30|13|0 2,0,0,0,0,0,0,0,0,0,0,0,0,0,0,2,
scooby_state_404be8|57|0 2,0,0,0,0,0,0,0,0,0,0,0,0,0,0,2,
scooby_state_405c30|46|0 2,0,0,0,0,0,0,0,0,0,0,0,0,0,0,2,
scooby_state_404b33|28|0 2,0,0,0,0,0,0,0,0,0,0,0,0,0,0,2,
scooby_state_405d70|29|0 2,0,0,0,0,0,0,0,0,0,0,0,0,0,0,2,
scooby_state_404b33|41|0 2,0,0,0,0,0,0,0,0,0,0,0,0,0,0,2,
scooby_state_404b01|44|1 1,0,0,0,0,0,0,0,0,0,0,0,0,0,0,1,
scooby_state_404533|18|1 1,0,0,0,0,0,0,0,0,0,0,0,0,0,0,1,
scooby_state_405c2a|21|0 1,0,0,0,0,0,0,0,0,0,0,0,0,0,0,1,
scooby_state_405c30|34|0 1,0,0,0,0,0,0,0,0,0,0,0,0,0,0,1,
scooby_state_404b43|13|1 1,0,0,0,0,0,0,0,0,0,0,0,0,0,0,1,
scooby_state_405c2a|10|0 1,0,0,0,0,0,0,0,0,0,0,0,0,0,0,1,
scooby_state_405b80|46|1 1,0,0,0,0,0,0,0,0,0,0,0,0,0,0,1,
scooby_state_405c30|22|0 1,0,0,0,0,0,0,0,0,0,0,0,0,0,0,1,
scooby_state_405c30|7|0 1,0,0,0,0,0,0,0,0,0,0,0,0,0,0,1,
scooby_state_405c30|15|1 1,0,0,0,0,0,0,0,0,0,0,0,0,0,0,1,
scooby_state_405e04|56|1 1,0,0,0,0,0,0,0,0,0,0,0,0,0,0,1,
scooby_state_405d32|49|0 1,0,0,0,0,0,0,0,0,0,0,0,0,0,0,1,
scooby_state_405d70|33|0 1,0,0,0,0,0,0,0,0,0,0,0,0,0,0,1,
scooby_state_405c30|38|0 1,0,0,0,0,0,0,0,0,0,0,0,0,0,0,1,
scooby_state_40452b|19|1 0,1,0,0,0,0,0,0,0,0,0,0,0,0,0,1,
scooby_state_405d6a|38|0 0,1,0,0,0,0,0,0,0,0,0,0,0,0,0,1,
scooby_state_4046ce|27|5 1,0,0,0,0,0,0,0,0,0,0,0,0,0,0,1,
scooby_state_405d70|8|0 1,0,0,0,0,0,0,0,0,0,0,0,0,0,0,1,
scooby_state_4043c2|15|1 1,0,0,0,0,0,0,0,0,0,0,0,0,0,0,1,
scooby_state_405c30|49|0 1,0,0,0,0,0,0,0,0,0,0,0,0,0,0,1,
scooby_state_405d70|49|0 1,0,0,0,0,0,0,0,0,0,0,0,0,0,0,1,
scooby_state_40452b|53|1 0,0,0,0,0,0,0,0,0,0,0,0,0,1,0,1,
scooby_state_405c2a|24|0 1,0,0,0,0,0,0,0,0,0,0,0,0,0,0,1,
scooby_state_40452b|16|1 0,1,0,0,0,0,0,0,0,0,0,0,0,0,0,1,
scooby_state_405c30|18|0 1,0,0,0,0,0,0,0,0,0,0,0,0,0,0,1,
scooby_state_405d16|11|0 1,0,0,0,0,0,0,0,0,0,0,0,0,0,0,1,
scooby_state_40452b|52|1 0,0,0,0,0,1,0,0,0,0,0,0,0,0,0,1,
scooby_state_404b43|59|1 1,0,0,0,0,0,0,0,0,0,0,0,0,0,0,1,
scooby_state_404bb2|60|1 1,0,0,0,0,0,0,0,0,0,0,0,0,0,0,1,
scooby_state_405c30|51|0 1,0,0,0,0,0,0,0,0,0,0,0,0,0,0,1,
scooby_state_404bb2|40|1 1,0,0,0,0,0,0,0,0,0,0,0,0,0,0,1,
scooby_state_404b43|55|1 1,0,0,0,0,0,0,0,0,0,0,0,0,0,0,1,
scooby_state_404b43|60|1 1,0,0,0,0,0,0,0,0,0,0,0,0,0,0,1,
scooby_state_405c2a|42|0 1,0,0,0,0,0,0,0,0,0,0,0,0,0,0,1,
scooby_state_405c30|20|0 1,0,0,0,0,0,0,0,0,0,0,0,0,0,0,1,
scooby_state_404702|28|1 1,0,0,0,0,0,0,0,0,0,0,0,0,0,0,1,
scooby_state_405c2a|22|0 1,0,0,0,0,0,0,0,0,0,0,0,0,0,0,1,
scooby_state_404bb2|59|1 1,0,0,0,0,0,0,0,0,0,0,0,0,0,0,1,
scooby_state_405c2a|18|0 1,0,0,0,0,0,0,0,0,0,0,0,0,0,0,1,
scooby_state_405d6a|18|0 0,1,0,0,0,0,0,0,0,0,0,0,0,0,0,1,
scooby_state_405d70|28|0 1,0,0,0,0,0,0,0,0,0,0,0,0,0,0,1,
scooby_state_405c2a|20|0 1,0,0,0,0,0,0,0,0,0,0,0,0,0,0,1,
scooby_state_405c2a|34|0 1,0,0,0,0,0,0,0,0,0,0,0,0,0,0,1,
scooby_state_405c2a|51|0 1,0,0,0,0,0,0,0,0,0,0,0,0,0,0,1,
scooby_state_404500|20|1 1,0,0,0,0,0,0,0,0,0,0,0,0,0,0,1,
scooby_state_404b43|17|1 1,0,0,0,0,0,0,0,0,0,0,0,0,0,0,1,
scooby_state_405c2a|3|0 1,0,0,0,0,0,0,0,0,0,0,0,0,0,0,1,
scooby_state_405d82|54|1 1,0,0,0,0,0,0,0,0,0,0,0,0,0,0,1,
scooby_state_404a82|42|1 1,0,0,0,0,0,0,0,0,0,0,0,0,0,0,1,
scooby_state_404b43|18|1 1,0,0,0,0,0,0,0,0,0,0,0,0,0,0,1,
scooby_state_405c30|53|0 1,0,0,0,0,0,0,0,0,0,0,0,0,0,0,1,
scooby_state_405d6a|1|0 0,1,0,0,0,0,0,0,0,0,0,0,0,0,0,1,
scooby_state_404533|17|1 1,0,0,0,0,0,0,0,0,0,0,0,0,0,0,1,
scooby_state_404ba3|57|0 1,0,0,0,0,0,0,0,0,0,0,0,0,0,0,1,
scooby_state_404b43|20|1 1,0,0,0,0,0,0,0,0,0,0,0,0,0,0,1,
scooby_state_404bb2|61|1 1,0,0,0,0,0,0,0,0,0,0,0,0,0,0,1,
scooby_state_405c2a|55|0 1,0,0,0,0,0,0,0,0,0,0,0,0,0,0,1,
scooby_state_404a00|40|0 1,0,0,0,0,0,0,0,0,0,0,0,0,0,0,1,
scooby_state_404533|22|1 1,0,0,0,0,0,0,0,0,0,0,0,0,0,0,1,
scooby_state_405dc0|55|1 1,0,0,0,0,0,0,0,0,0,0,0,0,0,0,1,
scooby_state_405c30|10|0 1,0,0,0,0,0,0,0,0,0,0,0,0,0,0,1,
scooby_state_405c2a|7|0 1,0,0,0,0,0,0,0,0,0,0,0,0,0,0,1,
scooby_state_404b33|5|0 1,0,0,0,0,0,0,0,0,0,0,0,0,0,0,1,
scooby_state_404b43|21|1 1,0,0,0,0,0,0,0,0,0,0,0,0,0,0,1,
scooby_state_404533|20|1 1,0,0,0,0,0,0,0,0,0,0,0,0,0,0,1,
scooby_state_405d82|12|-2 1,0,0,0,0,0,0,0,0,0,0,0,0,0,0,1,
scooby_state_404bb2|41|1 1,0,0,0,0,0,0,0,0,0,0,0,0,0,0,1,
scooby_state_40452b|49|1 1,0,0,0,0,0,0,0,0,0,0,0,0,0,0,1,
scooby_state_405bc0|47|1 1,0,0,0,0,0,0,0,0,0,0,0,0,0,0,1,
scooby_state_404b43|52|1 1,0,0,0,0,0,0,0,0,0,0,0,0,0,0,1,
scooby_state_404bb2|42|1 1,0,0,0,0,0,0,0,0,0,0,0,0,0,0,1,
scooby_state_405c30|24|0 1,0,0,0,0,0,0,0,0,0,0,0,0,0,0,1,
scooby_state_405d41|53|1 1,0,0,0,0,0,0,0,0,0,0,0,0,0,0,1,
scooby_state_405d6a|30|0 0,1,0,0,0,0,0,0,0,0,0,0,0,0,0,1,
scooby_state_405c30|21|0 1,0,0,0,0,0,0,0,0,0,0,0,0,0,0,1,
scooby_state_404b43|1|1 1,0,0,0,0,0,0,0,0,0,0,0,0,0,0,1,
scooby_state_404350|13|-39 1,0,0,0,0,0,0,0,0,0,0,0,0,0,0,1,
scooby_state_404533|16|1 1,0,0,0,0,0,0,0,0,0,0,0,0,0,0,1,
scooby_state_405d6a|47|0 0,1,0,0,0,0,0,0,0,0,0,0,0,0,0,1,
scooby_state_405c2a|1|0 1,0,0,0,0,0,0,0,0,0,0,0,0,0,0,1,
scooby_state_404b43|63|1 1,0,0,0,0,0,0,0,0,0,0,0,0,0,0,1,
scooby_state_405c2a|16|0 1,0,0,0,0,0,0,0,0,0,0,0,0,0,0,1,
scooby_state_404483|18|1 1,0,0,0,0,0,0,0,0,0,0,0,0,0,0,1,
scooby_state_404533|21|1 1,0,0,0,0,0,0,0,0,0,0,0,0,0,0,1,
scooby_state_405c2a|48|0 1,0,0,0,0,0,0,0,0,0,0,0,0,0,0,1,
scooby_state_404b43|2|1 1,0,0,0,0,0,0,0,0,0,0,0,0,0,0,1,
scooby_state_40452b|50|1 1,0,0,0,0,0,0,0,0,0,0,0,0,0,0,1,
scooby_state_405c2a|49|0 1,0,0,0,0,0,0,0,0,0,0,0,0,0,0,1,
scooby_state_404533|19|1 1,0,0,0,0,0,0,0,0,0,0,0,0,0,0,1,
scooby_state_40450c|44|0 1,0,0,0,0,0,0,0,0,0,0,0,0,0,0,1,
scooby_state_405c30|42|0 1,0,0,0,0,0,0,0,0,0,0,0,0,0,0,1,
scooby_state_405d70|1|0 1,0,0,0,0,0,0,0,0,0,0,0,0,0,0,1,
scooby_state_404406|16|1 1,0,0,0,0,0,0,0,0,0,0,0,0,0,0,1,
scooby_state_405d6a|49|0 0,1,0,0,0,0,0,0,0,0,0,0,0,0,0,1,
scooby_state_404b43|37|1 1,0,0,0,0,0,0,0,0,0,0,0,0,0,0,1,
scooby_state_404b43|16|1 1,0,0,0,0,0,0,0,0,0,0,0,0,0,0,1,
scooby_state_404b43|34|1 1,0,0,0,0,0,0,0,0,0,0,0,0,0,0,1,
scooby_state_405d70|7|0 1,0,0,0,0,0,0,0,0,0,0,0,0,0,0,1,
scooby_state_404bb2|39|1 1,0,0,0,0,0,0,0,0,0,0,0,0,0,0,1,
scooby_state_404381|14|1 1,0,0,0,0,0,0,0,0,0,0,0,0,0,0,1,
scooby_state_404b43|35|1 1,0,0,0,0,0,0,0,0,0,0,0,0,0,0,1,
scooby_state_40452b|55|1 0,0,0,0,0,0,0,0,0,0,0,0,1,0,0,1,
scooby_state_405c30|40|0 1,0,0,0,0,0,0,0,0,0,0,0,0,0,0,1,
scooby_state_404bb2|16|1 1,0,0,0,0,0,0,0,0,0,0,0,0,0,0,1,
scooby_state_40452b|46|1 0,1,0,0,0,0,0,0,0,0,0,0,0,0,0,1,
scooby_state_404bb2|62|1 1,0,0,0,0,0,0,0,0,0,0,0,0,0,0,1,
scooby_state_404b43|25|1 1,0,0,0,0,0,0,0,0,0,0,0,0,0,0,1,
scooby_state_404533|51|1 1,0,0,0,0,0,0,0,0,0,0,0,0,0,0,1,
scooby_state_404b43|42|1 1,0,0,0,0,0,0,0,0,0,0,0,0,0,0,1,
scooby_state_40452b|48|1 1,0,0,0,0,0,0,0,0,0,0,0,0,0,0,1,
scooby_state_404b82|46|1 1,0,0,0,0,0,0,0,0,0,0,0,0,0,0,1,
scooby_state_40452b|18|1 0,1,0,0,0,0,0,0,0,0,0,0,0,0,0,1,
scooby_state_404b43|38|1 1,0,0,0,0,0,0,0,0,0,0,0,0,0,0,1,
scooby_state_404b43|24|1 1,0,0,0,0,0,0,0,0,0,0,0,0,0,0,1,
scooby_state_40452b|45|1 0,0,0,0,0,0,1,0,0,0,0,0,0,0,0,1,
scooby_state_404b43|56|1 1,0,0,0,0,0,0,0,0,0,0,0,0,0,0,1,
scooby_state_405d70|60|0 1,0,0,0,0,0,0,0,0,0,0,0,0,0,0,1,
scooby_state_404b43|49|1 1,0,0,0,0,0,0,0,0,0,0,0,0,0,0,1,
scooby_state_404b43|44|1 1,0,0,0,0,0,0,0,0,0,0,0,0,0,0,1,
scooby_state_404b43|62|1 1,0,0,0,0,0,0,0,0,0,0,0,0,0,0,1,
scooby_state_404580|22|1 1,0,0,0,0,0,0,0,0,0,0,0,0,0,0,1,
scooby_state_405b44|45|1 1,0,0,0,0,0,0,0,0,0,0,0,0,0,0,1,
scooby_state_404b43|31|1 1,0,0,0,0,0,0,0,0,0,0,0,0,0,0,1,
scooby_state_404bb2|15|1 1,0,0,0,0,0,0,0,0,0,0,0,0,0,0,1,
scooby_state_404442|17|1 1,0,0,0,0,0,0,0,0,0,0,0,0,0,0,1,
scooby_state_405c30|48|0 1,0,0,0,0,0,0,0,0,0,0,0,0,0,0,1,
scooby_state_405c30|1|0 1,0,0,0,0,0,0,0,0,0,0,0,0,0,0,1,
scooby_state_404b43|58|1 1,0,0,0,0,0,0,0,0,0,0,0,0,0,0,1,
scooby_state_405d70|17|0 1,0,0,0,0,0,0,0,0,0,0,0,0,0,0,1,
scooby_state_404533|53|1 1,0,0,0,0,0,0,0,0,0,0,0,0,0,0,1,
scooby_state_404561|12|0 0,1,0,0,0,0,0,0,0,0,0,0,0,0,0,1,
scooby_state_404533|49|1 1,0,0,0,0,0,0,0,0,0,0,0,0,0,0,1,
scooby_state_405c2a|38|0 1,0,0,0,0,0,0,0,0,0,0,0,0,0,0,1,
scooby_state_404b43|30|1 1,0,0,0,0,0,0,0,0,0,0,0,0,0,0,1,
scooby_state_404bb2|58|1 1,0,0,0,0,0,0,0,0,0,0,0,0,0,0,1,
scooby_state_405c2a|53|0 1,0,0,0,0,0,0,0,0,0,0,0,0,0,0,1,
scooby_state_404b43|23|1 1,0,0,0,0,0,0,0,0,0,0,0,0,0,0,1,
scooby_state_404b43|28|1 1,0,0,0,0,0,0,0,0,0,0,0,0,0,0,1,
scooby_state_404b43|32|1 1,0,0,0,0,0,0,0,0,0,0,0,0,0,0,1,
scooby_state_404b43|27|1 1,0,0,0,0,0,0,0,0,0,0,0,0,0,0,1,
scooby_state_404b43|5|1 1,0,0,0,0,0,0,0,0,0,0,0,0,0,0,1,
scooby_state_405d6a|54|0 0,1,0,0,0,0,0,0,0,0,0,0,0,0,0,1,
scooby_state_405d70|63|0 1,0,0,0,0,0,0,0,0,0,0,0,0,0,0,1,
scooby_state_404533|50|1 1,0,0,0,0,0,0,0,0,0,0,0,0,0,0,1,
scooby_state_405d70|38|0 1,0,0,0,0,0,0,0,0,0,0,0,0,0,0,1,
scooby_state_40452b|17|1 0,1,0,0,0,0,0,0,0,0,0,0,0,0,0,1,
scooby_state_405c30|47|1 1,0,0,0,0,0,0,0,0,0,0,0,0,0,0,1,
scooby_state_405b03|44|1 1,0,0,0,0,0,0,0,0,0,0,0,0,0,0,1,
scooby_state_404bb2|20|1 1,0,0,0,0,0,0,0,0,0,0,0,0,0,0,1,
scooby_state_405ac3|19|7 1,0,0,0,0,0,0,0,0,0,0,0,0,0,0,1,
scooby_state_404c02|48|1 1,0,0,0,0,0,0,0,0,0,0,0,0,0,0,1,
scooby_state_404533|15|1 1,0,0,0,0,0,0,0,0,0,0,0,0,0,0,1,
scooby_state_40452b|21|1 0,1,0,0,0,0,0,0,0,0,0,0,0,0,0,1,
scooby_state_404533|54|1 1,0,0,0,0,0,0,0,0,0,0,0,0,0,0,1,
scooby_state_405d70|54|0 1,0,0,0,0,0,0,0,0,0,0,0,0,0,0,1,
scooby_state_405c30|3|0 1,0,0,0,0,0,0,0,0,0,0,0,0,0,0,1,
scooby_state_404b43|48|1 1,0,0,0,0,0,0,0,0,0,0,0,0,0,0,1,
scooby_state_40452b|47|1 0,0,0,0,0,0,0,0,0,0,0,0,0,0,1,1,
scooby_state_404ba3|36|0 0,0,0,0,0,0,0,0,0,1,0,0,0,0,0,1,
scooby_state_404bb2|37|1 1,0,0,0,0,0,0,0,0,0,0,0,0,0,0,1,
scooby_state_404bb2|18|1 1,0,0,0,0,0,0,0,0,0,0,0,0,0,0,1,
scooby_state_405c30|36|0 1,0,0,0,0,0,0,0,0,0,0,0,0,0,0,1,
scooby_state_405d6a|8|0 0,1,0,0,0,0,0,0,0,0,0,0,0,0,0,1,
scooby_state_404d0f|52|4 1,0,0,0,0,0,0,0,0,0,0,0,0,0,0,1,
scooby_state_404b43|51|1 1,0,0,0,0,0,0,0,0,0,0,0,0,0,0,1,
scooby_state_404ac1|43|1 1,0,0,0,0,0,0,0,0,0,0,0,0,0,0,1,
scooby_state_4044c5|19|1 1,0,0,0,0,0,0,0,0,0,0,0,0,0,0,1,
scooby_state_404533|24|1 1,0,0,0,0,0,0,0,0,0,0,0,0,0,0,1,
scooby_state_404bb2|38|1 1,0,0,0,0,0,0,0,0,0,0,0,0,0,0,1,
scooby_state_405c30|16|0 1,0,0,0,0,0,0,0,0,0,0,0,0,0,0,1,
scooby_state_405ac0|43|-13 1,0,0,0,0,0,0,0,0,0,0,0,0,0,0,1,
scooby_state_405d70|18|0 1,0,0,0,0,0,0,0,0,0,0,0,0,0,0,1,
scooby_state_405d6a|60|0 0,1,0,0,0,0,0,0,0,0,0,0,0,0,0,1,
scooby_state_404b43|53|1 1,0,0,0,0,0,0,0,0,0,0,0,0,0,0,1,
scooby_state_404542|21|1 1,0,0,0,0,0,0,0,0,0,0,0,0,0,0,1,
scooby_state_405d6a|14|0 0,1,0,0,0,0,0,0,0,0,0,0,0,0,0,1,
scooby_state_405d12|52|0 1,0,0,0,0,0,0,0,0,0,0,0,0,0,0,1,
scooby_state_405d6a|63|0 0,1,0,0,0,0,0,0,0,0,0,0,0,0,0,1,
scooby_state_404b43|46|1 1,0,0,0,0,0,0,0,0,0,0,0,0,0,0,1,
scooby_state_405c30|55|0 1,0,0,0,0,0,0,0,0,0,0,0,0,0,0,1,
scooby_state_404533|52|1 1,0,0,0,0,0,0,0,0,0,0,0,0,0,0,1,
scooby_state_40452b|54|1 1,0,0,0,0,0,0,0,0,0,0,0,0,0,0,1,
scooby_state_404b43|41|1 1,0,0,0,0,0,0,0,0,0,0,0,0,0,0,1,
scooby_state_405c42|49|1 1,0,0,0,0,0,0,0,0,0,0,0,0,0,0,1,
scooby_state_40452b|20|1 0,1,0,0,0,0,0,0,0,0,0,0,0,0,0,1,
scooby_state_405c2a|40|0 1,0,0,0,0,0,0,0,0,0,0,0,0,0,0,1,
scooby_state_404b43|39|1 1,0,0,0,0,0,0,0,0,0,0,0,0,0,0,1,
scooby_state_404b43|14|1 1,0,0,0,0,0,0,0,0,0,0,0,0,0,0,1,
scooby_state_404533|23|1 1,0,0,0,0,0,0,0,0,0,0,0,0,0,0,1,
scooby_state_404bb2|19|1 1,0,0,0,0,0,0,0,0,0,0,0,0,0,0,1,
scooby_state_405d6a|17|0 0,1,0,0,0,0,0,0,0,0,0,0,0,0,0,1,
scooby_state_405d6a|7|0 0,1,0,0,0,0,0,0,0,0,0,0,0,0,0,1,
scooby_state_404a42|41|1 1,0,0,0,0,0,0,0,0,0,0,0,0,0,0,1,
scooby_state_405d6a|33|0 0,1,0,0,0,0,0,0,0,0,0,0,0,0,0,1,
scooby_state_404bc3|47|1 1,0,0,0,0,0,0,0,0,0,0,0,0,0,0,1,
scooby_state_405c80|50|1 1,0,0,0,0,0,0,0,0,0,0,0,0,0,0,1,
scooby_state_404bb2|17|1 1,0,0,0,0,0,0,0,0,0,0,0,0,0,0,1,
scooby_state_405c01|48|1 1,0,0,0,0,0,0,0,0,0,0,0,0,0,0,1,
scooby_state_404b43|3|1 1,0,0,0,0,0,0,0,0,0,0,0,0,0,0,1,
scooby_state_405cc4|51|1 1,0,0,0,0,0,0,0,0,0,0,0,0,0,0,1,
scooby_state_405c2a|37|0 1,0,0,0,0,0,0,0,0,0,0,0,0,0,0,1,
scooby_state_405c2a|36|0 1,0,0,0,0,0,0,0,0,0,0,0,0,0,0,1,
scooby_state_405d6a|28|0 0,1,0,0,0,0,0,0,0,0,0,0,0,0,0,1,
scooby_state_405c30|37|0 1,0,0,0,0,0,0,0,0,0,0,0,0,0,0,1,

scooby_action_0_deg_dist 0,216,0,0,0,0,0,0,0,0,0,0,0,0,0,0,
scooby_action_12_deg_dist 0,300,0,0,0,0,0,0,0,0,0,0,0,0,0,0,
scooby_action_32_deg_dist 0,116,0,0,0,0,0,0,0,0,0,0,0,0,0,0,
scooby_action_3_deg_dist 0,522,8,0,0,0,0,0,0,0,0,0,0,0,0,0,
scooby_action_5_deg_dist 0,151,0,0,0,0,0,0,0,0,0,0,0,0,0,0,
scooby_action_1_deg_dist 0,39474,25104,0,62246,0,663394,0,0,0,0,0,0,0,0,0,
scooby_action_30_deg_dist 0,142,0,0,0,0,0,0,0,0,0,0,0,0,0,0,
scooby_action_4_deg_dist 0,293,0,0,0,0,0,0,0,0,0,0,0,0,0,0,
scooby_action_-3_deg_dist 0,294,0,0,0,0,0,0,0,0,0,0,0,0,0,0,
scooby_action_10_deg_dist 0,276,0,0,0,0,0,0,0,0,0,0,0,0,0,0,
scooby_action_-1_deg_dist 0,235,0,0,0,0,0,0,0,0,0,0,0,0,0,0,
scooby_action_23_deg_dist 0,132,0,0,0,0,0,0,0,0,0,0,0,0,0,0,
scooby_action_-6_deg_dist 0,116,0,0,0,0,0,0,0,0,0,0,0,0,0,0,
scooby_action_11_deg_dist 0,128,0,0,0,0,0,0,0,0,0,0,0,0,0,0,
scooby_action_22_deg_dist 0,136,0,0,0,0,0,0,0,0,0,0,0,0,0,0,

scooby_track_called 793283
scooby_track_same_address 1442
scooby_track_evict 791585

scooby_reward_demand_called 793283
scooby_reward_demand_pt_not_found 17153
scooby_reward_demand_pt_found 776130
scooby_reward_demand_pt_found_total 776130
scooby_reward_demand_has_reward 0
scooby_reward_train_called 3075
scooby_reward_assign_reward_called 791839
scooby_reward_no_pref 216
scooby_reward_incorrect 2859
scooby_reward_correct_untimely 704779
scooby_reward_correct_timely 71351
scooby_reward_out_of_bounds 12634
scooby_reward_tracker_hit 0

scooby_reward_none_low_bw 216
scooby_reward_none_high_bw 0
scooby_reward_incorrect_low_bw 2859
scooby_reward_incorrect_high_bw 0
scooby_reward_correct_untimely_low_bw 704779
scooby_reward_correct_untimely_high_bw 0
scooby_reward_correct_timely_low_bw 71351
scooby_reward_correct_timely_high_bw 0
scooby_reward_out_of_bounds_low_bw 12634
scooby_reward_out_of_bounds_high_bw 0
scooby_reward_tracker_hit_low_bw 0
scooby_reward_tracker_hit_high_bw 0

scooby_reward_1 0,2190,704405,70491,12305,0,
scooby_reward_3 0,160,213,34,6,0,
scooby_reward_4 0,65,36,52,10,0,
scooby_reward_5 0,40,32,58,10,0,
scooby_reward_10 0,32,1,221,22,0,
scooby_reward_11 0,29,0,75,24,0,
scooby_reward_12 0,78,0,84,28,0,
scooby_reward_22 0,28,0,68,40,0,
scooby_reward_23 0,28,0,61,43,0,
scooby_reward_30 0,25,0,55,62,0,
scooby_reward_32 0,26,0,32,58,0,
scooby_reward_-1 0,47,92,1,4,0,
scooby_reward_-3 0,80,0,119,6,0,
scooby_reward_-6 0,31,0,0,16,0,
scooby_reward_0 216,0,0,0,0,0,

scooby_train_called 791584
scooby_train_compute_reward 3075

scooby_register_fill_called 744404
scooby_register_fill_set 73123
scooby_register_fill_set_total 73123

scooby_register_prefetch_hit_called 2407104
scooby_register_prefetch_hit_set 676962
scooby_register_prefetch_hit_set_total 676962

scooby_pref_issue_scooby 4058994

learning_engine_featurewise.action.called 793283
learning_engine_featurewise.action.explore 1447
learning_engine_featurewise.action.exploit 791836
learning_engine_featurewise.action.fallback 0
learning_engine_featurewise.action.dyn_fallback_saved_bw 0
learning_engine_featurewise.action.dyn_fallback_saved_bw_acc 0
learning_engine_featurewise.action.index_1_explored 93
learning_engine_featurewise.action.index_1_exploited 790125
learning_engine_featurewise.action.index_3_explored 103
learning_engine_featurewise.action.index_3_exploited 427
learning_engine_featurewise.action.index_4_explored 96
learning_engine_featurewise.action.index_4_exploited 197
learning_engine_featurewise.action.index_5_explored 99
learning_engine_featurewise.action.index_5_exploited 52
learning_engine_featurewise.action.index_10_explored 109
learning_engine_featurewise.action.index_10_exploited 167
learning_engine_featurewise.action.index_11_explored 90
learning_engine_featurewise.action.index_11_exploited 38
learning_engine_featurewise.action.index_12_explored 104
learning_engine_featurewise.action.index_12_exploited 196
learning_engine_featurewise.action.index_22_explored 100
learning_engine_featurewise.action.index_22_exploited 36
learning_engine_featurewise.action.index_23_explored 96
learning_engine_featurewise.action.index_23_exploited 36
learning_engine_featurewise.action.index_30_explored 107
learning_engine_featurewise.action.index_30_exploited 35
learning_engine_featurewise.action.index_32_explored 80
learning_engine_featurewise.action.index_32_exploited 36
learning_engine_featurewise.action.index_-1_explored 99
learning_engine_featurewise.action.index_-1_exploited 136
learning_engine_featurewise.action.index_-3_explored 96
learning_engine_featurewise.action.index_-3_exploited 198
learning_engine_featurewise.action.index_-6_explored 81
learning_engine_featurewise.action.index_-6_exploited 35
learning_engine_featurewise.action.index_0_explored 94
learning_engine_featurewise.action.index_0_exploited 122
learning_engine_featurewise.learn.called 791584
learning_engine_featurewise.learn.su_skip_PC 0
learning_engine_featurewise.learn.su_skip_PC_Delta 0

learning_engine_featurewise.q_value_histogram.bucket_0 0
learning_engine_featurewise.q_value_histogram.bucket_1 0
learning_engine_featurewise.q_value_histogram.bucket_2 0
learning_engine_featurewise.q_value_histogram.bucket_3 544
learning_engine_featurewise.q_value_histogram.bucket_4 2226
learning_engine_featurewise.q_value_histogram.bucket_5 1401
learning_engine_featurewise.q_value_histogram.bucket_6 787665
learning_engine_featurewise.q_value_histogram.bucket_7 0

learning_engine_featurewise.consensus.total 791836
learning_engine_featurewise.consensus.feature_align_PC 790155
learning_engine_featurewise.consensus.feature_align_PC_ratio 1.00
learning_engine_featurewise.consensus.feature_align_PC_Delta 791139
learning_engine_featurewise.consensus.feature_align_PC_Delta_ratio 1.00
learning_engine_featurewise.consensus.feature_align_all 789458
learning_engine_featurewise.consensus.feature_align_all_ratio 1.00

learning_engine_featurewise.feature_PC_min_weight 1000000.00000000
learning_engine_featurewise.feature_PC_max_weight 0.00000000
learning_engine_featurewise.feature_PC_Delta_min_weight 1000000.00000000
learning_engine_featurewise.feature_PC_Delta_max_weight 0.00000000
unique_pcs 77
unique_pages 8277
unique_trigger_pcs 27
total_bitmaps_seen 0
unique_bitmaps_seen 0

scooby_bw_epochs 179973
scooby_bw_level_0 59208
scooby_bw_level_1 120765
scooby_bw_level_2 0
scooby_bw_level_3 0

scooby_ipc_epochs 0
scooby_ipc_level_0 0
scooby_ipc_level_1 0
scooby_ipc_level_2 0
scooby_ipc_level_3 0

scooby_cache_acc_epochs 44330
scooby_cache_acc_level_0 1
scooby_cache_acc_level_1 0
scooby_cache_acc_level_2 0
scooby_cache_acc_level_3 1
scooby_cache_acc_level_4 0
scooby_cache_acc_level_5 7
scooby_cache_acc_level_6 96
scooby_cache_acc_level_7 177
scooby_cache_acc_level_8 1649
scooby_cache_acc_level_9 42399

Channel_0_RQ_row_buffer_hit 59089
Channel_0_RQ_row_buffer_miss 379669
Channel_0_WQ_row_buffer_hit 242796
Channel_0_WQ_row_buffer_miss 195863
Channel_0_WQ_full 0
Channel_0_dbus_congested 502196

avg_congested_cycle 11

DRAM_bw_pochs 179973
DRAM_bw_level_0 59208
DRAM_bw_level_1 120765
DRAM_bw_level_2 0
DRAM_bw_level_3 0
