*************************************************
   ChampSim Multicore Out-of-Order Simulator
   Last compiled: Apr  3 2025 20:54:34
*************************************************
parsing config file: /home/zir/Pythia/config/pythia.ini

trace_0 /home/zir/ChampSim/ML-DPC/ChampSimTraces/spec17/621.wrf-s1.trace.xz
adding L2C_PREFETCHER: Scooby
Initialize SHIP state
warmup_instructions 10000000
simulation_instructions 50000000
champsim_seed 164
measure_ipc 0
measure_ipc_epoch 1000
measure_dram_bw 1
measure_dram_bw_epoch 256
measure_cache_acc 1
measure_cache_acc_epoch 1024
l1d_perfect 0
l2c_perfect 0
llc_perfect 0
l1d_semi_perfect 0
l2c_semi_perfect 0
llc_semi_perfect 0
semi_perfect_cache_page_buffer_size 64

num_cpus 1
cpu_freq 4000
dram_io_freq 2400
page_size 4096
block_size 64
max_read_per_cycle 8
max_fill_per_cycle 1
dram_channels 1
log2_dram_channels 0
dram_ranks 1
dram_banks 8
dram_rows 65536
dram_columns 128
dram_row_size 8
dram_size 4096
dram_pages 1048576

fetch_width 6
decode_width 6
exec_width 4
lq_width 2
sq_width 2
retire_width 4
scheduler_size 128
branch_mispredict_penalty 20
rob_size 256
lq_size 72
sq_size 56
num_instr_destinations_sparc 4
num_instr_destinations 2
num_instr_sources 4

itlb_set 16
itlb_way 8
itlb_rq_size 16
itlb_wq_size 16
itlb_pq_size 0
itlb_mshr_size 8
itlb_latency 1

dtlb_set 16
dtlb_way 4
dtlb_rq_size 16
dtlb_wq_size 16
dtlb_pq_size 0
dtlb_mshr_size 8
dtlb_latency 1

stlb_set 128
stlb_way 12
stlb_rq_size 32
stlb_wq_size 32
stlb_pq_size 0
stlb_mshr_size 16
stlb_latency 8

l1i_size 32
l1i_set 64
l1i_way 8
l1i_rq_size 64
l1i_wq_size 64
l1i_pq_size 8
l1i_mshr_size 8
l1i_latency 1

l1d_size 32
l1d_set 64
l1d_way 8
l1d_rq_size 64
l1d_wq_size 64
l1d_pq_size 8
l1d_mshr_size 16
l1d_latency 4

l2c_size 256
l2c_set 512
l2c_way 8
l2c_rq_size 32
l2c_wq_size 32
l2c_pq_size 32
l2c_mshr_size 32
l2c_latency 10

llc_size 2048
llc_set 2048
llc_way 16
llc_rq_size 32
llc_wq_size 32
llc_pq_size 32
llc_mshr_size 64
llc_latency 20

dram_channel_width 8
dram_wq_size 64
dram_rq_size 64
tRP 15
tRCD 15
tCAS 12.5
dram_dbus_turn_around_time 30
dram_write_high_wm 56
dram_write_low_wm 48
min_dram_writes_per_switch 16
dram_mtps 2400
dram_dbus_return_time 13

scooby_alpha 0.0065088
scooby_gamma 0.556301
scooby_epsilon 0.00182284
scooby_state_num_bits 10
scooby_max_states 1024
scooby_seed 200
scooby_policy EGreedy
scooby_learning_type SARSA
scooby_actions 1,3,4,5,10,11,12,22,23,30,32,-1,-3,-6,0,
scooby_max_actions 15
scooby_pt_size 256
scooby_st_size 64
scooby_max_pcs 5
scooby_max_offsets 5
scooby_max_deltas 5
scooby_reward_none -4
scooby_reward_incorrect -8
scooby_reward_correct_untimely 12
scooby_reward_correct_timely 20
scooby_brain_zero_init 0
scooby_enable_reward_all 0
scooby_enable_track_multiple 0
scooby_enable_reward_out_of_bounds 1
scooby_reward_out_of_bounds -12
scooby_state_type 1
scooby_state_hash_type 11
scooby_access_debug 0
scooby_print_access_debug 0
scooby_print_access_debug_pc deadbeef
scooby_print_access_debug_pc_count 0
scooby_print_trace 0
scooby_enable_state_action_stats 1
scooby_enable_reward_tracker_hit 0
scooby_reward_tracker_hit -2
scooby_enable_featurewise_engine 1
scooby_pref_degree 1
scooby_enable_dyn_degree 1
scooby_max_to_avg_q_thresholds 0.5,1,2,
scooby_dyn_degrees 1,2,4,4,
scooby_multi_deg_select_type 2
scooby_last_pref_offset_conf_thresholds 1,3,8,
scooby_dyn_degrees_type2 1,2,4,6,
scooby_action_tracker_size 2
scooby_high_bw_thresh 4
scooby_enable_hbw_reward 1
scooby_reward_hbw_correct_timely 20
scooby_reward_hbw_correct_untimely 12
scooby_reward_hbw_incorrect -14
scooby_reward_hbw_none -2
scooby_reward_hbw_out_of_bounds -12
scooby_reward_hbw_tracker_hit -2
scooby_last_pref_offset_conf_thresholds_hbw 1,3,8,
scooby_dyn_degrees_type2_hbw 1,2,4,6,

le_enable_trace 0
le_trace_interval 0
le_trace_file_name 
le_trace_state 0
le_enable_score_plot 0
le_plot_file_name 
le_plot_actions 
le_enable_action_trace 0
le_action_trace_interval 0
le_action_trace_name 
le_enable_action_plot 0

le_featurewise_active_features PC, PC_Delta
le_featurewise_num_tilings 3,3,
le_featurewise_num_tiles 128,128,
le_featurewise_hash_types 2,2,
le_featurewise_enable_tiling_offset 1,1,
le_featurewise_max_q_thresh 0.5
le_featurewise_enable_action_fallback 1
le_featurewise_feature_weights 1,1,
le_featurewise_enable_dynamic_weight 0
le_featurewise_weight_gradient 0.001
le_featurewise_disable_adjust_weight_all_features_align 1
le_featurewise_selective_update 0
le_featurewise_pooling_type 2
le_featurewise_enable_dyn_action_fallback 1
le_featurewise_bw_acc_check_level 1
le_featurewise_acc_thresh 2
le_featurewise_enable_trace 0
le_featurewise_trace_feature_type 0
le_featurewise_trace_feature 
le_featurewise_trace_interval 0
le_featurewise_trace_record_count 0
le_featurewise_trace_file_name 
le_featurewise_enable_score_plot 0
le_featurewise_plot_actions 
le_featurewise_plot_file_name 


Heartbeat CPU  0 instructions:    1000001 cycles:     439900 heartbeat IPC: 2.27325 cumulative IPC: 2.27325 (Simulation time: 0 hr 0 min 2 sec) 
Heartbeat CPU  0 instructions:    2000002 cycles:     855395 heartbeat IPC: 2.40677 cumulative IPC: 2.33810 (Simulation time: 0 hr 0 min 4 sec) 
Heartbeat CPU  0 instructions:    3000001 cycles:    1397484 heartbeat IPC: 1.84471 cumulative IPC: 2.14672 (Simulation time: 0 hr 0 min 6 sec) 
Heartbeat CPU  0 instructions:    4000000 cycles:    2020692 heartbeat IPC: 1.60460 cumulative IPC: 1.97952 (Simulation time: 0 hr 0 min 8 sec) 
Heartbeat CPU  0 instructions:    5000001 cycles:    2652229 heartbeat IPC: 1.58344 cumulative IPC: 1.88521 (Simulation time: 0 hr 0 min 10 sec) 
Heartbeat CPU  0 instructions:    6000001 cycles:    3286496 heartbeat IPC: 1.57662 cumulative IPC: 1.82565 (Simulation time: 0 hr 0 min 12 sec) 
Heartbeat CPU  0 instructions:    7000000 cycles:    3916441 heartbeat IPC: 1.58744 cumulative IPC: 1.78734 (Simulation time: 0 hr 0 min 14 sec) 
Heartbeat CPU  0 instructions:    8000000 cycles:    4547150 heartbeat IPC: 1.58552 cumulative IPC: 1.75934 (Simulation time: 0 hr 0 min 16 sec) 
Heartbeat CPU  0 instructions:    9000000 cycles:    5174652 heartbeat IPC: 1.59362 cumulative IPC: 1.73925 (Simulation time: 0 hr 0 min 18 sec) 
Heartbeat CPU  0 instructions:   10000000 cycles:    5737040 heartbeat IPC: 1.77813 cumulative IPC: 1.74306 (Simulation time: 0 hr 0 min 20 sec) 

Warmup complete CPU  0 instructions:   10000004 cycles:    5737041 (Simulation time: 0 hr 0 min 20 sec) 

Heartbeat CPU  0 instructions:   11000001 cycles:    6419734 heartbeat IPC: 1.46479 cumulative IPC: 1.46478 (Simulation time: 0 hr 0 min 21 sec) 
Heartbeat CPU  0 instructions:   12000000 cycles:    7108974 heartbeat IPC: 1.45087 cumulative IPC: 1.45779 (Simulation time: 0 hr 0 min 23 sec) 
Heartbeat CPU  0 instructions:   13000001 cycles:    7820240 heartbeat IPC: 1.40595 cumulative IPC: 1.44009 (Simulation time: 0 hr 0 min 26 sec) 
Heartbeat CPU  0 instructions:   14000001 cycles:    8545646 heartbeat IPC: 1.37854 cumulative IPC: 1.42419 (Simulation time: 0 hr 0 min 28 sec) 
Heartbeat CPU  0 instructions:   15000001 cycles:    9339682 heartbeat IPC: 1.25939 cumulative IPC: 1.38787 (Simulation time: 0 hr 0 min 30 sec) 
Heartbeat CPU  0 instructions:   16000000 cycles:   10227053 heartbeat IPC: 1.12692 cumulative IPC: 1.33630 (Simulation time: 0 hr 0 min 33 sec) 
Heartbeat CPU  0 instructions:   17000003 cycles:   11146882 heartbeat IPC: 1.08716 cumulative IPC: 1.29394 (Simulation time: 0 hr 0 min 35 sec) 
Heartbeat CPU  0 instructions:   18000001 cycles:   11988940 heartbeat IPC: 1.18756 cumulative IPC: 1.27961 (Simulation time: 0 hr 0 min 37 sec) 
Heartbeat CPU  0 instructions:   19000002 cycles:   12883450 heartbeat IPC: 1.11793 cumulative IPC: 1.25937 (Simulation time: 0 hr 0 min 39 sec) 
Heartbeat CPU  0 instructions:   20000000 cycles:   13805886 heartbeat IPC: 1.08408 cumulative IPC: 1.23933 (Simulation time: 0 hr 0 min 42 sec) 
Heartbeat CPU  0 instructions:   21000003 cycles:   14695167 heartbeat IPC: 1.12451 cumulative IPC: 1.22794 (Simulation time: 0 hr 0 min 44 sec) 
Heartbeat CPU  0 instructions:   22000000 cycles:   15555024 heartbeat IPC: 1.16298 cumulative IPC: 1.22225 (Simulation time: 0 hr 0 min 47 sec) 
Heartbeat CPU  0 instructions:   23000000 cycles:   16361121 heartbeat IPC: 1.24055 cumulative IPC: 1.22363 (Simulation time: 0 hr 0 min 49 sec) 
Heartbeat CPU  0 instructions:   24000000 cycles:   17125136 heartbeat IPC: 1.30887 cumulative IPC: 1.22935 (Simulation time: 0 hr 0 min 51 sec) 
Heartbeat CPU  0 instructions:   25000003 cycles:   17869445 heartbeat IPC: 1.34353 cumulative IPC: 1.23636 (Simulation time: 0 hr 0 min 52 sec) 
Heartbeat CPU  0 instructions:   26000000 cycles:   18643576 heartbeat IPC: 1.29177 cumulative IPC: 1.23968 (Simulation time: 0 hr 0 min 54 sec) 
Heartbeat CPU  0 instructions:   27000002 cycles:   19424156 heartbeat IPC: 1.28110 cumulative IPC: 1.24204 (Simulation time: 0 hr 0 min 56 sec) 
Heartbeat CPU  0 instructions:   28000000 cycles:   20149847 heartbeat IPC: 1.37799 cumulative IPC: 1.24889 (Simulation time: 0 hr 0 min 58 sec) 
Heartbeat CPU  0 instructions:   29000002 cycles:   20874382 heartbeat IPC: 1.38020 cumulative IPC: 1.25517 (Simulation time: 0 hr 1 min 0 sec) 
Heartbeat CPU  0 instructions:   30000003 cycles:   21598825 heartbeat IPC: 1.38037 cumulative IPC: 1.26089 (Simulation time: 0 hr 1 min 1 sec) 
Heartbeat CPU  0 instructions:   31000003 cycles:   22319353 heartbeat IPC: 1.38787 cumulative IPC: 1.26641 (Simulation time: 0 hr 1 min 3 sec) 
Heartbeat CPU  0 instructions:   32000000 cycles:   23016254 heartbeat IPC: 1.43492 cumulative IPC: 1.27321 (Simulation time: 0 hr 1 min 5 sec) 
Heartbeat CPU  0 instructions:   33000003 cycles:   23712922 heartbeat IPC: 1.43541 cumulative IPC: 1.27949 (Simulation time: 0 hr 1 min 7 sec) 
Heartbeat CPU  0 instructions:   34000003 cycles:   25150820 heartbeat IPC: 0.69546 cumulative IPC: 1.23624 (Simulation time: 0 hr 1 min 10 sec) 
Heartbeat CPU  0 instructions:   35000003 cycles:   27493384 heartbeat IPC: 0.42688 cumulative IPC: 1.14909 (Simulation time: 0 hr 1 min 13 sec) 
Heartbeat CPU  0 instructions:   36000000 cycles:   29694324 heartbeat IPC: 0.45435 cumulative IPC: 1.08526 (Simulation time: 0 hr 1 min 16 sec) 
Heartbeat CPU  0 instructions:   37000003 cycles:   32319588 heartbeat IPC: 0.38092 cumulative IPC: 1.01570 (Simulation time: 0 hr 1 min 19 sec) 
Heartbeat CPU  0 instructions:   38000003 cycles:   35046341 heartbeat IPC: 0.36674 cumulative IPC: 0.95533 (Simulation time: 0 hr 1 min 23 sec) 
Heartbeat CPU  0 instructions:   39000001 cycles:   36248492 heartbeat IPC: 0.83184 cumulative IPC: 0.95046 (Simulation time: 0 hr 1 min 25 sec) 
Heartbeat CPU  0 instructions:   40000000 cycles:   37060741 heartbeat IPC: 1.23115 cumulative IPC: 0.95774 (Simulation time: 0 hr 1 min 27 sec) 
Heartbeat CPU  0 instructions:   41000001 cycles:   38007617 heartbeat IPC: 1.05611 cumulative IPC: 0.96063 (Simulation time: 0 hr 1 min 29 sec) 
Heartbeat CPU  0 instructions:   42000001 cycles:   38830525 heartbeat IPC: 1.21520 cumulative IPC: 0.96696 (Simulation time: 0 hr 1 min 31 sec) 
Heartbeat CPU  0 instructions:   43000000 cycles:   41236060 heartbeat IPC: 0.41571 cumulative IPC: 0.92960 (Simulation time: 0 hr 1 min 34 sec) 
Heartbeat CPU  0 instructions:   44000000 cycles:   42320860 heartbeat IPC: 0.92183 cumulative IPC: 0.92937 (Simulation time: 0 hr 1 min 36 sec) 
Heartbeat CPU  0 instructions:   45000001 cycles:   43253465 heartbeat IPC: 1.07227 cumulative IPC: 0.93292 (Simulation time: 0 hr 1 min 39 sec) 
Heartbeat CPU  0 instructions:   46000003 cycles:   44020047 heartbeat IPC: 1.30449 cumulative IPC: 0.94037 (Simulation time: 0 hr 1 min 41 sec) 
Heartbeat CPU  0 instructions:   47000003 cycles:   44761823 heartbeat IPC: 1.34812 cumulative IPC: 0.94812 (Simulation time: 0 hr 1 min 42 sec) 
Heartbeat CPU  0 instructions:   48000000 cycles:   45601297 heartbeat IPC: 1.19122 cumulative IPC: 0.95323 (Simulation time: 0 hr 1 min 45 sec) 
Heartbeat CPU  0 instructions:   49000000 cycles:   46629989 heartbeat IPC: 0.97211 cumulative IPC: 0.95371 (Simulation time: 0 hr 1 min 47 sec) 
Heartbeat CPU  0 instructions:   50000003 cycles:   47562496 heartbeat IPC: 1.07238 cumulative IPC: 0.95636 (Simulation time: 0 hr 1 min 50 sec) 
Heartbeat CPU  0 instructions:   51000001 cycles:   48444449 heartbeat IPC: 1.13384 cumulative IPC: 0.96002 (Simulation time: 0 hr 1 min 53 sec) 
Heartbeat CPU  0 instructions:   52000000 cycles:   49694645 heartbeat IPC: 0.79987 cumulative IPC: 0.95547 (Simulation time: 0 hr 1 min 55 sec) 
Heartbeat CPU  0 instructions:   53000000 cycles:   50599422 heartbeat IPC: 1.10524 cumulative IPC: 0.95849 (Simulation time: 0 hr 1 min 58 sec) 
Heartbeat CPU  0 instructions:   54000000 cycles:   51500969 heartbeat IPC: 1.10920 cumulative IPC: 0.96146 (Simulation time: 0 hr 2 min 0 sec) 
Heartbeat CPU  0 instructions:   55000000 cycles:   52391671 heartbeat IPC: 1.12271 cumulative IPC: 0.96453 (Simulation time: 0 hr 2 min 2 sec) 
Heartbeat CPU  0 instructions:   56000000 cycles:   53414163 heartbeat IPC: 0.97800 cumulative IPC: 0.96482 (Simulation time: 0 hr 2 min 5 sec) 
Heartbeat CPU  0 instructions:   57000002 cycles:   54960607 heartbeat IPC: 0.64665 cumulative IPC: 0.95483 (Simulation time: 0 hr 2 min 7 sec) 
Heartbeat CPU  0 instructions:   58000002 cycles:   56106817 heartbeat IPC: 0.87244 cumulative IPC: 0.95295 (Simulation time: 0 hr 2 min 10 sec) 
Heartbeat CPU  0 instructions:   59000003 cycles:   57144264 heartbeat IPC: 0.96391 cumulative IPC: 0.95317 (Simulation time: 0 hr 2 min 13 sec) 
Heartbeat CPU  0 instructions:   60000000 cycles:   58128000 heartbeat IPC: 1.01653 cumulative IPC: 0.95436 (Simulation time: 0 hr 2 min 15 sec) 
Finished CPU 0 instructions: 50000000 cycles: 52391003 cumulative IPC: 0.95436 (Simulation time: 0 hr 2 min 15 sec) 

ChampSim completed all CPUs

[ROI Statistics]
Core_0_instructions 50000000
Core_0_cycles 52391003
Core_0_IPC 0.95436

Core_0_branch_prediction_accuracy 99.34653
Core_0_branch_MPKI 0.34402
Core_0_average_ROB_occupancy_at_mispredict 228.02593

Core_0_L1D_total_access 11267532
Core_0_L1D_total_hit 9901577
Core_0_L1D_total_miss 1365955
Core_0_L1D_loads 9194946
Core_0_L1D_load_hit 8042260
Core_0_L1D_load_miss 1152686
Core_0_L1D_RFOs 2072586
Core_0_L1D_RFO_hit 1859317
Core_0_L1D_RFO_miss 213269
Core_0_L1D_prefetches 0
Core_0_L1D_prefetch_hit 0
Core_0_L1D_prefetch_miss 0
Core_0_L1D_writebacks 0
Core_0_L1D_writeback_hit 0
Core_0_L1D_writeback_miss 0
Core_0_L1D_prefetch_requested 0
Core_0_L1D_prefetch_dropped 0
Core_0_L1D_prefetch_issued 0
Core_0_L1D_prefetch_filled 0
Core_0_L1D_prefetch_useful 0
Core_0_L1D_prefetch_useless 0
Core_0_L1D_prefetch_late 0
Core_0_L1D_average_miss_latency 111.70247

Core_0_L1D_rq_access 14290402
Core_0_L1D_rq_forward 0
Core_0_L1D_rq_merged 4574522
Core_0_L1D_rq_to_cache 9715852
Core_0_L1D_rq_full 0

Core_0_L1D_wq_access 2871696
Core_0_L1D_wq_forward 28
Core_0_L1D_wq_merged 59
Core_0_L1D_wq_to_cache 2871637
Core_0_L1D_wq_full 250

Core_0_L1D_pq_access 0
Core_0_L1D_pq_forward 0
Core_0_L1D_pq_merged 0
Core_0_L1D_pq_to_cache 0
Core_0_L1D_pq_full 0

Core_0_L1D_acc_epochs 55717
Core_0_L1D_acc_level_0 55717
Core_0_L1D_acc_level_1 0
Core_0_L1D_acc_level_2 0
Core_0_L1D_acc_level_3 0
Core_0_L1D_acc_level_4 0
Core_0_L1D_acc_level_5 0
Core_0_L1D_acc_level_6 0
Core_0_L1D_acc_level_7 0
Core_0_L1D_acc_level_8 0
Core_0_L1D_acc_level_9 0

Core_0_L1I_total_access 11284394
Core_0_L1I_total_hit 11282344
Core_0_L1I_total_miss 2050
Core_0_L1I_loads 11284394
Core_0_L1I_load_hit 11282344
Core_0_L1I_load_miss 2050
Core_0_L1I_RFOs 0
Core_0_L1I_RFO_hit 0
Core_0_L1I_RFO_miss 0
Core_0_L1I_prefetches 0
Core_0_L1I_prefetch_hit 0
Core_0_L1I_prefetch_miss 0
Core_0_L1I_writebacks 0
Core_0_L1I_writeback_hit 0
Core_0_L1I_writeback_miss 0
Core_0_L1I_prefetch_requested 0
Core_0_L1I_prefetch_dropped 0
Core_0_L1I_prefetch_issued 0
Core_0_L1I_prefetch_filled 0
Core_0_L1I_prefetch_useful 0
Core_0_L1I_prefetch_useless 0
Core_0_L1I_prefetch_late 0
Core_0_L1I_average_miss_latency 167.57659

Core_0_L1I_rq_access 50000007
Core_0_L1I_rq_forward 0
Core_0_L1I_rq_merged 38714023
Core_0_L1I_rq_to_cache 11285984
Core_0_L1I_rq_full 0

Core_0_L1I_wq_access 0
Core_0_L1I_wq_forward 0
Core_0_L1I_wq_merged 0
Core_0_L1I_wq_to_cache 0
Core_0_L1I_wq_full 0

Core_0_L1I_pq_access 0
Core_0_L1I_pq_forward 0
Core_0_L1I_pq_merged 0
Core_0_L1I_pq_to_cache 0
Core_0_L1I_pq_full 0

Core_0_L1I_acc_epochs 55717
Core_0_L1I_acc_level_0 55717
Core_0_L1I_acc_level_1 0
Core_0_L1I_acc_level_2 0
Core_0_L1I_acc_level_3 0
Core_0_L1I_acc_level_4 0
Core_0_L1I_acc_level_5 0
Core_0_L1I_acc_level_6 0
Core_0_L1I_acc_level_7 0
Core_0_L1I_acc_level_8 0
Core_0_L1I_acc_level_9 0

Core_0_L2C_total_access 5852704
Core_0_L2C_total_hit 4787682
Core_0_L2C_total_miss 1065022
Core_0_L2C_loads 1154684
Core_0_L2C_load_hit 993429
Core_0_L2C_load_miss 161255
Core_0_L2C_RFOs 213269
Core_0_L2C_RFO_hit 53497
Core_0_L2C_RFO_miss 159772
Core_0_L2C_prefetches 4018992
Core_0_L2C_prefetch_hit 3275044
Core_0_L2C_prefetch_miss 743948
Core_0_L2C_writebacks 465759
Core_0_L2C_writeback_hit 465712
Core_0_L2C_writeback_miss 47
Core_0_L2C_prefetch_requested 6223876
Core_0_L2C_prefetch_dropped 160117
Core_0_L2C_prefetch_issued 6063759
Core_0_L2C_prefetch_filled 826052
Core_0_L2C_prefetch_useful 777219
Core_0_L2C_prefetch_useless 48664
Core_0_L2C_prefetch_late 106462
Core_0_L2C_average_miss_latency 385.78345

Core_0_L2C_rq_access 1368005
Core_0_L2C_rq_forward 0
Core_0_L2C_rq_merged 0
Core_0_L2C_rq_to_cache 1367954
Core_0_L2C_rq_full 0

Core_0_L2C_wq_access 465760
Core_0_L2C_wq_forward 242
Core_0_L2C_wq_merged 0
Core_0_L2C_wq_to_cache 465760
Core_0_L2C_wq_full 0

Core_0_L2C_pq_access 6063759
Core_0_L2C_pq_forward 0
Core_0_L2C_pq_merged 471280
Core_0_L2C_pq_to_cache 5592288
Core_0_L2C_pq_full 0

Core_0_L2C_acc_epochs 55717
Core_0_L2C_acc_level_0 3742
Core_0_L2C_acc_level_1 718
Core_0_L2C_acc_level_2 611
Core_0_L2C_acc_level_3 630
Core_0_L2C_acc_level_4 643
Core_0_L2C_acc_level_5 1020
Core_0_L2C_acc_level_6 1490
Core_0_L2C_acc_level_7 2567
Core_0_L2C_acc_level_8 5835
Core_0_L2C_acc_level_9 38461

Core_0_LLC_total_access 1436556
Core_0_LLC_total_hit 389649
Core_0_LLC_total_miss 1046907
Core_0_LLC_loads 54942
Core_0_LLC_load_hit 10946
Core_0_LLC_load_miss 43996
Core_0_LLC_RFOs 159654
Core_0_LLC_RFO_hit 4701
Core_0_LLC_RFO_miss 154953
Core_0_LLC_prefetches 850377
Core_0_LLC_prefetch_hit 79440
Core_0_LLC_prefetch_miss 770937
Core_0_LLC_writebacks 371583
Core_0_LLC_writeback_hit 294562
Core_0_LLC_writeback_miss 77021
Core_0_LLC_prefetch_requested 0
Core_0_LLC_prefetch_dropped 0
Core_0_LLC_prefetch_issued 0
Core_0_LLC_prefetch_filled 851950
Core_0_LLC_prefetch_useful 5599
Core_0_LLC_prefetch_useless 818606
Core_0_LLC_prefetch_late 0
Core_0_LLC_average_miss_latency 393.46341

Core_0_LLC_rq_access 214598
Core_0_LLC_rq_forward 0
Core_0_LLC_rq_merged 0
Core_0_LLC_rq_to_cache 214596
Core_0_LLC_rq_full 0

Core_0_LLC_wq_access 371583
Core_0_LLC_wq_forward 2
Core_0_LLC_wq_merged 0
Core_0_LLC_wq_to_cache 371583
Core_0_LLC_wq_full 0

Core_0_LLC_pq_access 932517
Core_0_LLC_pq_forward 0
Core_0_LLC_pq_merged 0
Core_0_LLC_pq_to_cache 932517
Core_0_LLC_pq_full 0

Core_0_LLC_acc_epochs 56766
Core_0_LLC_acc_level_0 56029
Core_0_LLC_acc_level_1 241
Core_0_LLC_acc_level_2 119
Core_0_LLC_acc_level_3 71
Core_0_LLC_acc_level_4 49
Core_0_LLC_acc_level_5 49
Core_0_LLC_acc_level_6 29
Core_0_LLC_acc_level_7 12
Core_0_LLC_acc_level_8 17
Core_0_LLC_acc_level_9 150

Core_0_major_page_fault 0
Core_0_minor_page_fault 6870

scooby_st_lookup 1244132
scooby_st_hit 1206090
scooby_st_evict 37978
scooby_st_insert 38042
scooby_st_streaming 0

scooby_predict_called 1244132
scooby_predict_out_of_bounds 24853
scooby_predict_action_1 1182621
scooby_predict_issue_action_1 1172973
scooby_predict_hit_action_1 9648
scooby_predict_out_of_bounds_action_1 18503
scooby_predict_action_3 938
scooby_predict_issue_action_3 921
scooby_predict_hit_action_3 17
scooby_predict_out_of_bounds_action_3 46
scooby_predict_action_4 566
scooby_predict_issue_action_4 564
scooby_predict_hit_action_4 2
scooby_predict_out_of_bounds_action_4 35
scooby_predict_action_5 13309
scooby_predict_issue_action_5 13248
scooby_predict_hit_action_5 61
scooby_predict_out_of_bounds_action_5 1144
scooby_predict_action_10 10558
scooby_predict_issue_action_10 10555
scooby_predict_hit_action_10 3
scooby_predict_out_of_bounds_action_10 1858
scooby_predict_action_11 8954
scooby_predict_issue_action_11 8945
scooby_predict_hit_action_11 9
scooby_predict_out_of_bounds_action_11 2152
scooby_predict_action_12 394
scooby_predict_issue_action_12 393
scooby_predict_hit_action_12 1
scooby_predict_out_of_bounds_action_12 86
scooby_predict_action_22 312
scooby_predict_issue_action_22 312
scooby_predict_hit_action_22 0
scooby_predict_out_of_bounds_action_22 167
scooby_predict_action_23 447
scooby_predict_issue_action_23 446
scooby_predict_hit_action_23 1
scooby_predict_out_of_bounds_action_23 309
scooby_predict_action_30 347
scooby_predict_issue_action_30 346
scooby_predict_hit_action_30 1
scooby_predict_out_of_bounds_action_30 343
scooby_predict_action_32 177
scooby_predict_issue_action_32 175
scooby_predict_hit_action_32 2
scooby_predict_out_of_bounds_action_32 189
scooby_predict_action_-1 151
scooby_predict_issue_action_-1 19
scooby_predict_hit_action_-1 132
scooby_predict_out_of_bounds_action_-1 2
scooby_predict_action_-3 149
scooby_predict_issue_action_-3 24
scooby_predict_hit_action_-3 125
scooby_predict_out_of_bounds_action_-3 2
scooby_predict_action_-6 153
scooby_predict_issue_action_-6 42
scooby_predict_hit_action_-6 111
scooby_predict_out_of_bounds_action_-6 17
scooby_predict_action_0 203
scooby_predict_issue_action_0 0
scooby_predict_hit_action_0 0
scooby_predict_out_of_bounds_action_0 0
scooby_predict_multi_deg_called 1125865
scooby_predict_predicted 6223876
scooby_predict_multi_deg 5014913
scooby_predict_multi_deg_2 1104205
scooby_predict_multi_deg_3 1045995
scooby_predict_multi_deg_4 1027227
scooby_predict_multi_deg_5 927769
scooby_predict_multi_deg_6 909717
scooby_predict_multi_deg_7 0
scooby_predict_multi_deg_8 0
scooby_predict_multi_deg_9 0
scooby_predict_multi_deg_10 0
scooby_predict_multi_deg_11 0
scooby_predict_multi_deg_12 0
scooby_predict_multi_deg_13 0
scooby_predict_multi_deg_14 0
scooby_predict_multi_deg_15 0
scooby_predict_multi_deg_16 0

scooby_selected_deg_1 83098
scooby_selected_deg_2 39815
scooby_selected_deg_3 0
scooby_selected_deg_4 85876
scooby_selected_deg_5 0
scooby_selected_deg_6 1000174
scooby_selected_deg_7 0
scooby_selected_deg_8 0
scooby_selected_deg_9 0
scooby_selected_deg_10 0
scooby_selected_deg_11 0
scooby_selected_deg_12 0
scooby_selected_deg_13 0
scooby_selected_deg_14 0
scooby_selected_deg_15 0
scooby_selected_deg_16 0

scooby_state_8e7320|0|0 59,0,0,0,138,7,0,0,0,0,0,0,0,0,0,204,
scooby_state_8e7320|1|0 58,0,0,0,140,6,0,0,0,0,0,0,0,0,0,204,
scooby_state_8e7320|2|0 59,0,0,0,141,4,0,0,0,0,0,0,0,0,0,204,
scooby_state_8e7320|3|0 57,0,0,0,137,4,0,0,0,0,0,0,0,0,0,198,
scooby_state_8e7320|4|0 59,0,0,0,132,7,0,0,0,0,0,0,0,0,0,198,
scooby_state_8e7620|2|0 38,0,0,0,138,0,0,0,0,0,0,0,0,0,0,176,
scooby_state_8e7620|1|0 37,0,0,0,138,0,0,0,0,0,0,0,0,0,0,175,
scooby_state_8e7620|4|0 36,0,0,0,139,0,0,0,0,0,0,0,0,0,0,175,
scooby_state_8e7620|0|0 36,0,0,0,139,0,0,0,0,0,0,0,0,0,0,175,
scooby_state_8e7620|3|0 36,0,0,0,134,0,0,0,0,0,0,0,0,0,0,170,
scooby_state_8e7320|34|5 8,0,0,0,43,93,0,0,0,4,0,0,0,0,2,150,
scooby_state_8e7320|56|5 9,0,0,0,45,94,0,0,0,1,0,0,0,0,1,150,
scooby_state_8e7320|35|5 9,0,0,0,43,93,0,0,0,3,0,0,0,0,2,150,
scooby_state_8e7320|54|5 9,0,0,0,45,91,0,0,0,3,0,0,0,0,1,149,
scooby_state_8e7320|58|5 9,0,0,0,41,95,0,0,0,3,0,0,0,0,1,149,
scooby_state_8e7320|60|5 7,0,0,0,39,98,0,0,0,4,0,0,0,0,1,149,
scooby_state_8e7320|37|5 9,0,0,0,38,100,0,0,0,1,0,0,0,0,1,149,
scooby_state_8e7320|61|5 9,0,0,0,37,101,0,0,0,2,0,0,0,0,0,149,
scooby_state_8e7320|53|5 8,0,0,0,47,89,0,0,0,3,0,0,0,0,2,149,
scooby_state_8e7320|59|5 9,0,0,0,40,96,0,0,0,3,0,0,0,0,1,149,
scooby_state_8e7320|39|5 9,0,0,0,33,102,0,0,0,4,0,0,0,0,1,149,
scooby_state_8e7320|40|5 9,0,0,0,38,97,0,1,0,3,0,0,0,0,1,149,
scooby_state_8e7320|55|5 7,0,0,0,46,91,0,0,0,4,0,0,0,0,1,149,
scooby_state_8e7320|32|5 9,0,0,0,46,90,0,0,0,2,0,0,0,0,1,148,
scooby_state_8e7320|51|5 9,0,0,0,42,89,0,0,0,2,0,0,0,0,1,143,
scooby_state_8e7320|10|5 6,0,0,0,49,84,0,0,0,3,0,0,0,0,1,143,
scooby_state_8e7320|33|5 8,0,0,0,42,90,0,0,0,3,0,0,0,0,0,143,
scooby_state_8e7320|38|5 7,0,0,0,32,100,0,0,0,3,0,0,0,0,1,143,
scooby_state_8e7320|36|5 7,0,0,0,37,95,0,0,0,3,0,0,0,0,1,143,
scooby_state_8e7320|49|5 9,0,0,0,37,93,0,0,0,2,0,0,0,0,1,142,
scooby_state_8e7320|41|5 7,0,0,0,33,99,0,0,0,3,0,0,0,0,0,142,
scooby_state_8e7320|31|5 7,0,0,0,40,90,0,0,1,3,0,0,0,0,1,142,
scooby_state_8e7320|44|5 9,0,0,0,31,98,0,0,0,3,0,0,1,0,0,142,
scooby_state_8e7320|63|5 9,0,0,0,28,102,0,1,0,2,0,0,0,0,0,142,
scooby_state_8e7320|62|5 7,0,0,0,31,101,0,0,0,3,0,0,0,0,0,142,
scooby_state_8e7320|45|5 8,0,0,0,38,92,0,0,0,3,0,0,0,0,1,142,
scooby_state_8e7320|43|5 7,0,0,0,32,100,0,0,0,3,0,0,0,0,0,142,
scooby_state_8e7320|42|5 9,0,0,0,31,100,0,0,0,2,0,0,0,0,0,142,
scooby_state_8e7320|48|5 7,0,0,0,43,88,0,0,0,3,0,0,0,0,1,142,
scooby_state_8e7320|50|5 7,0,0,0,38,92,0,0,0,3,0,0,0,0,2,142,
scooby_state_8e7320|11|5 9,0,0,0,42,85,0,0,0,3,0,0,0,0,1,140,
scooby_state_8e7320|15|5 7,0,0,0,42,88,0,0,0,3,0,0,0,0,0,140,
scooby_state_8e7320|29|5 7,0,0,0,43,84,0,0,0,3,0,0,0,0,2,139,
scooby_state_8e7320|30|5 9,0,0,0,36,89,0,1,0,2,0,0,0,0,2,139,
scooby_state_f33b5d|9|1 137,0,0,0,0,0,0,0,0,0,0,1,0,0,0,138,
scooby_state_f33b4a|6|1 138,0,0,0,0,0,0,0,0,0,0,0,0,0,0,138,
scooby_state_f33b5d|13|1 138,0,0,0,0,0,0,0,0,0,0,0,0,0,0,138,
scooby_state_f33b4a|39|1 137,0,0,0,0,1,0,0,0,0,0,0,0,0,0,138,
scooby_state_f33b5d|31|1 137,0,0,0,0,0,1,0,0,0,0,0,0,0,0,138,
scooby_state_f33b88|2|1 137,0,0,0,0,0,0,0,0,0,0,1,0,0,0,138,
scooby_state_f33b88|0|0 138,0,0,0,0,0,0,0,0,0,0,0,0,0,0,138,
scooby_state_f33b5d|35|1 138,0,0,0,0,0,0,0,0,0,0,0,0,0,0,138,
scooby_state_f33b3c|37|1 138,0,0,0,0,0,0,0,0,0,0,0,0,0,0,138,
scooby_state_f33b5d|16|1 138,0,0,0,0,0,0,0,0,0,0,0,0,0,0,138,
scooby_state_f33b88|30|1 138,0,0,0,0,0,0,0,0,0,0,0,0,0,0,138,
scooby_state_f33b4a|19|1 138,0,0,0,0,0,0,0,0,0,0,0,0,0,0,138,
scooby_state_f33b3c|24|1 138,0,0,0,0,0,0,0,0,0,0,0,0,0,0,138,
scooby_state_f33b5d|28|1 138,0,0,0,0,0,0,0,0,0,0,0,0,0,0,138,
scooby_state_f33b4a|20|1 138,0,0,0,0,0,0,0,0,0,0,0,0,0,0,138,
scooby_state_f33b3c|16|1 138,0,0,0,0,0,0,0,0,0,0,0,0,0,0,138,
scooby_state_f33b4a|31|1 137,0,0,0,0,0,1,0,0,0,0,0,0,0,0,138,
scooby_state_f33b4a|22|1 138,0,0,0,0,0,0,0,0,0,0,0,0,0,0,138,
scooby_state_f33b88|51|1 138,0,0,0,0,0,0,0,0,0,0,0,0,0,0,138,
scooby_state_f33b88|21|1 138,0,0,0,0,0,0,0,0,0,0,0,0,0,0,138,
scooby_state_f33b88|16|1 137,0,0,0,0,0,0,0,0,0,0,0,1,0,0,138,
scooby_state_f33b5d|43|1 138,0,0,0,0,0,0,0,0,0,0,0,0,0,0,138,
scooby_state_f33b4a|30|1 138,0,0,0,0,0,0,0,0,0,0,0,0,0,0,138,
scooby_state_f33b3c|35|1 138,0,0,0,0,0,0,0,0,0,0,0,0,0,0,138,
scooby_state_f33b4a|34|1 138,0,0,0,0,0,0,0,0,0,0,0,0,0,0,138,
scooby_state_f33b5d|29|1 138,0,0,0,0,0,0,0,0,0,0,0,0,0,0,138,
scooby_state_f33b5d|19|1 138,0,0,0,0,0,0,0,0,0,0,0,0,0,0,138,
scooby_state_f33b88|33|1 138,0,0,0,0,0,0,0,0,0,0,0,0,0,0,138,
scooby_state_f33b5d|33|1 138,0,0,0,0,0,0,0,0,0,0,0,0,0,0,138,
scooby_state_f33b4a|12|1 138,0,0,0,0,0,0,0,0,0,0,0,0,0,0,138,
scooby_state_f33b3c|47|1 138,0,0,0,0,0,0,0,0,0,0,0,0,0,0,138,
scooby_state_f33b3c|33|1 138,0,0,0,0,0,0,0,0,0,0,0,0,0,0,138,
scooby_state_f33b3c|17|1 138,0,0,0,0,0,0,0,0,0,0,0,0,0,0,138,
scooby_state_f33b4a|28|1 137,0,0,0,0,0,0,0,0,0,0,0,0,1,0,138,
scooby_state_f33b4a|37|1 138,0,0,0,0,0,0,0,0,0,0,0,0,0,0,138,
scooby_state_f33b88|11|1 138,0,0,0,0,0,0,0,0,0,0,0,0,0,0,138,
scooby_state_f33b4a|24|1 138,0,0,0,0,0,0,0,0,0,0,0,0,0,0,138,
scooby_state_f33b4a|48|1 138,0,0,0,0,0,0,0,0,0,0,0,0,0,0,138,
scooby_state_f33b4a|23|1 138,0,0,0,0,0,0,0,0,0,0,0,0,0,0,138,
scooby_state_f33b5d|24|1 138,0,0,0,0,0,0,0,0,0,0,0,0,0,0,138,
scooby_state_f33b5d|60|1 138,0,0,0,0,0,0,0,0,0,0,0,0,0,0,138,
scooby_state_f33b5d|0|0 138,0,0,0,0,0,0,0,0,0,0,0,0,0,0,138,
scooby_state_f33b88|7|1 138,0,0,0,0,0,0,0,0,0,0,0,0,0,0,138,
scooby_state_f33b3c|27|1 138,0,0,0,0,0,0,0,0,0,0,0,0,0,0,138,
scooby_state_f33b5d|12|1 138,0,0,0,0,0,0,0,0,0,0,0,0,0,0,138,
scooby_state_f33b5d|11|1 138,0,0,0,0,0,0,0,0,0,0,0,0,0,0,138,
scooby_state_f33b88|13|1 138,0,0,0,0,0,0,0,0,0,0,0,0,0,0,138,
scooby_state_f33b5d|58|1 138,0,0,0,0,0,0,0,0,0,0,0,0,0,0,138,
scooby_state_f33b5d|57|1 138,0,0,0,0,0,0,0,0,0,0,0,0,0,0,138,
scooby_state_f33b5d|42|1 138,0,0,0,0,0,0,0,0,0,0,0,0,0,0,138,
scooby_state_f33b88|18|1 137,0,1,0,0,0,0,0,0,0,0,0,0,0,0,138,
scooby_state_f33b4a|32|1 138,0,0,0,0,0,0,0,0,0,0,0,0,0,0,138,
scooby_state_f33b5d|59|1 137,0,0,1,0,0,0,0,0,0,0,0,0,0,0,138,
scooby_state_f33b3c|29|1 137,0,0,0,0,0,0,0,0,0,0,0,0,0,1,138,
scooby_state_f33b3c|9|1 138,0,0,0,0,0,0,0,0,0,0,0,0,0,0,138,
scooby_state_f33b3c|8|1 137,0,0,0,0,0,0,0,0,0,0,0,1,0,0,138,
scooby_state_f33b3c|25|1 138,0,0,0,0,0,0,0,0,0,0,0,0,0,0,138,
scooby_state_f33b4a|5|1 138,0,0,0,0,0,0,0,0,0,0,0,0,0,0,138,
scooby_state_f33b3c|11|1 137,0,0,0,0,0,0,0,0,0,0,0,0,0,1,138,
scooby_state_f33b3c|34|1 138,0,0,0,0,0,0,0,0,0,0,0,0,0,0,138,
scooby_state_f33b3c|43|1 138,0,0,0,0,0,0,0,0,0,0,0,0,0,0,138,
scooby_state_f33b3c|10|1 138,0,0,0,0,0,0,0,0,0,0,0,0,0,0,138,
scooby_state_f33b3c|12|1 138,0,0,0,0,0,0,0,0,0,0,0,0,0,0,138,
scooby_state_f33b4a|47|1 138,0,0,0,0,0,0,0,0,0,0,0,0,0,0,138,
scooby_state_f33b3c|21|1 138,0,0,0,0,0,0,0,0,0,0,0,0,0,0,138,
scooby_state_f33b88|55|1 138,0,0,0,0,0,0,0,0,0,0,0,0,0,0,138,
scooby_state_f33b4a|10|1 138,0,0,0,0,0,0,0,0,0,0,0,0,0,0,138,
scooby_state_f33b5d|20|1 138,0,0,0,0,0,0,0,0,0,0,0,0,0,0,138,
scooby_state_f33b88|36|1 138,0,0,0,0,0,0,0,0,0,0,0,0,0,0,138,
scooby_state_f33b3c|51|1 138,0,0,0,0,0,0,0,0,0,0,0,0,0,0,138,
scooby_state_f33b3c|36|1 138,0,0,0,0,0,0,0,0,0,0,0,0,0,0,138,
scooby_state_f33b88|54|1 136,0,0,0,1,0,1,0,0,0,0,0,0,0,0,138,
scooby_state_f33b5d|23|1 137,0,0,1,0,0,0,0,0,0,0,0,0,0,0,138,
scooby_state_f33b3c|7|1 137,0,0,0,0,0,0,0,0,0,0,0,0,1,0,138,
scooby_state_f33b88|29|1 138,0,0,0,0,0,0,0,0,0,0,0,0,0,0,138,
scooby_state_f33b5d|14|1 138,0,0,0,0,0,0,0,0,0,0,0,0,0,0,138,
scooby_state_f33b4a|2|1 138,0,0,0,0,0,0,0,0,0,0,0,0,0,0,138,
scooby_state_f33b88|52|1 138,0,0,0,0,0,0,0,0,0,0,0,0,0,0,138,
scooby_state_f33b4a|3|1 138,0,0,0,0,0,0,0,0,0,0,0,0,0,0,138,
scooby_state_f33b3c|18|1 138,0,0,0,0,0,0,0,0,0,0,0,0,0,0,138,
scooby_state_f33b4a|45|1 137,0,0,0,1,0,0,0,0,0,0,0,0,0,0,138,
scooby_state_f33b3c|19|1 138,0,0,0,0,0,0,0,0,0,0,0,0,0,0,138,
scooby_state_f33b88|1|1 138,0,0,0,0,0,0,0,0,0,0,0,0,0,0,138,
scooby_state_f33b88|14|1 138,0,0,0,0,0,0,0,0,0,0,0,0,0,0,138,
scooby_state_f33b5d|7|1 138,0,0,0,0,0,0,0,0,0,0,0,0,0,0,138,
scooby_state_f33b3c|28|1 137,0,0,0,1,0,0,0,0,0,0,0,0,0,0,138,
scooby_state_f33b5d|2|1 138,0,0,0,0,0,0,0,0,0,0,0,0,0,0,138,
scooby_state_f33b3c|20|1 137,0,0,0,0,0,0,0,0,0,0,0,0,1,0,138,
scooby_state_f33b4a|9|1 138,0,0,0,0,0,0,0,0,0,0,0,0,0,0,138,
scooby_state_f33b4a|33|1 138,0,0,0,0,0,0,0,0,0,0,0,0,0,0,138,
scooby_state_f33b3c|22|1 138,0,0,0,0,0,0,0,0,0,0,0,0,0,0,138,
scooby_state_f33b88|19|1 137,0,1,0,0,0,0,0,0,0,0,0,0,0,0,138,
scooby_state_f33b4a|17|1 138,0,0,0,0,0,0,0,0,0,0,0,0,0,0,138,
scooby_state_f33b4a|4|1 138,0,0,0,0,0,0,0,0,0,0,0,0,0,0,138,
scooby_state_f33b4a|49|1 138,0,0,0,0,0,0,0,0,0,0,0,0,0,0,138,
scooby_state_f33b3c|23|1 138,0,0,0,0,0,0,0,0,0,0,0,0,0,0,138,
scooby_state_f33b4a|18|1 138,0,0,0,0,0,0,0,0,0,0,0,0,0,0,138,
scooby_state_f33b5d|5|1 137,0,0,1,0,0,0,0,0,0,0,0,0,0,0,138,
scooby_state_f33b88|3|1 137,0,0,0,0,0,0,0,0,0,1,0,0,0,0,138,
scooby_state_f33b88|56|1 136,1,0,0,0,0,0,0,0,1,0,0,0,0,0,138,
scooby_state_f33b4a|7|1 138,0,0,0,0,0,0,0,0,0,0,0,0,0,0,138,
scooby_state_f33b4a|51|1 137,0,0,0,0,0,0,0,0,0,0,0,0,0,1,138,
scooby_state_f33b4a|16|1 138,0,0,0,0,0,0,0,0,0,0,0,0,0,0,138,
scooby_state_f33b3c|13|1 138,0,0,0,0,0,0,0,0,0,0,0,0,0,0,138,
scooby_state_f33b88|59|1 138,0,0,0,0,0,0,0,0,0,0,0,0,0,0,138,
scooby_state_f33b5d|1|1 137,0,0,0,0,0,0,0,1,0,0,0,0,0,0,138,
scooby_state_f33b88|60|1 138,0,0,0,0,0,0,0,0,0,0,0,0,0,0,138,
scooby_state_f33b4a|46|1 138,0,0,0,0,0,0,0,0,0,0,0,0,0,0,138,
scooby_state_f33b88|32|1 138,0,0,0,0,0,0,0,0,0,0,0,0,0,0,138,
scooby_state_f33b88|10|1 138,0,0,0,0,0,0,0,0,0,0,0,0,0,0,138,
scooby_state_f33b4a|11|1 138,0,0,0,0,0,0,0,0,0,0,0,0,0,0,138,
scooby_state_f33b88|62|1 138,0,0,0,0,0,0,0,0,0,0,0,0,0,0,138,
scooby_state_f33b88|63|1 137,0,0,0,0,0,0,0,0,1,0,0,0,0,0,138,
scooby_state_f33b88|8|1 138,0,0,0,0,0,0,0,0,0,0,0,0,0,0,138,
scooby_state_f33b5d|17|1 138,0,0,0,0,0,0,0,0,0,0,0,0,0,0,138,
scooby_state_f33b5d|62|1 138,0,0,0,0,0,0,0,0,0,0,0,0,0,0,138,
scooby_state_f33b3c|42|1 137,0,0,0,0,0,0,1,0,0,0,0,0,0,0,138,
scooby_state_f33b5d|41|1 138,0,0,0,0,0,0,0,0,0,0,0,0,0,0,138,
scooby_state_f33b5d|27|1 137,0,0,0,0,0,0,0,0,0,0,0,0,0,1,138,
scooby_state_f33b3c|40|1 138,0,0,0,0,0,0,0,0,0,0,0,0,0,0,138,
scooby_state_f33b3c|14|1 138,0,0,0,0,0,0,0,0,0,0,0,0,0,0,138,
scooby_state_f33b88|28|1 138,0,0,0,0,0,0,0,0,0,0,0,0,0,0,138,
scooby_state_f33b5d|26|1 138,0,0,0,0,0,0,0,0,0,0,0,0,0,0,138,
scooby_state_f33b5d|4|1 138,0,0,0,0,0,0,0,0,0,0,0,0,0,0,138,
scooby_state_f33b88|25|1 138,0,0,0,0,0,0,0,0,0,0,0,0,0,0,138,
scooby_state_f33b3c|57|1 138,0,0,0,0,0,0,0,0,0,0,0,0,0,0,138,
scooby_state_f33b3c|55|1 138,0,0,0,0,0,0,0,0,0,0,0,0,0,0,138,
scooby_state_f33b88|23|1 138,0,0,0,0,0,0,0,0,0,0,0,0,0,0,138,
scooby_state_f33b5d|40|1 138,0,0,0,0,0,0,0,0,0,0,0,0,0,0,138,
scooby_state_f33b3c|49|1 138,0,0,0,0,0,0,0,0,0,0,0,0,0,0,138,
scooby_state_f33b5d|8|1 138,0,0,0,0,0,0,0,0,0,0,0,0,0,0,138,
scooby_state_f33b3c|58|1 138,0,0,0,0,0,0,0,0,0,0,0,0,0,0,138,
scooby_state_f33b4a|50|1 138,0,0,0,0,0,0,0,0,0,0,0,0,0,0,138,
scooby_state_f33b5d|61|1 138,0,0,0,0,0,0,0,0,0,0,0,0,0,0,138,
scooby_state_f33b88|35|1 138,0,0,0,0,0,0,0,0,0,0,0,0,0,0,138,
scooby_state_f33b5d|6|1 138,0,0,0,0,0,0,0,0,0,0,0,0,0,0,138,
scooby_state_f33b3c|30|1 138,0,0,0,0,0,0,0,0,0,0,0,0,0,0,138,
scooby_state_f33b88|38|1 138,0,0,0,0,0,0,0,0,0,0,0,0,0,0,138,
scooby_state_f33b88|5|1 138,0,0,0,0,0,0,0,0,0,0,0,0,0,0,138,
scooby_state_f33b88|22|1 137,0,0,0,0,0,0,0,0,1,0,0,0,0,0,138,
scooby_state_f33b5d|15|1 138,0,0,0,0,0,0,0,0,0,0,0,0,0,0,138,
scooby_state_f33b88|15|1 138,0,0,0,0,0,0,0,0,0,0,0,0,0,0,138,
scooby_state_f33b3c|46|1 138,0,0,0,0,0,0,0,0,0,0,0,0,0,0,138,
scooby_state_f33b5d|18|1 138,0,0,0,0,0,0,0,0,0,0,0,0,0,0,138,
scooby_state_f33b88|37|1 137,0,0,0,0,1,0,0,0,0,0,0,0,0,0,138,
scooby_state_f33b4a|41|1 138,0,0,0,0,0,0,0,0,0,0,0,0,0,0,138,
scooby_state_f33b4a|29|1 138,0,0,0,0,0,0,0,0,0,0,0,0,0,0,138,
scooby_state_f33b5d|30|1 138,0,0,0,0,0,0,0,0,0,0,0,0,0,0,138,
scooby_state_f33b4a|36|1 137,1,0,0,0,0,0,0,0,0,0,0,0,0,0,138,
scooby_state_f33b3c|56|1 138,0,0,0,0,0,0,0,0,0,0,0,0,0,0,138,
scooby_state_f33b4a|14|1 138,0,0,0,0,0,0,0,0,0,0,0,0,0,0,138,
scooby_state_f33b3c|44|1 138,0,0,0,0,0,0,0,0,0,0,0,0,0,0,138,
scooby_state_f33b5d|21|1 138,0,0,0,0,0,0,0,0,0,0,0,0,0,0,138,
scooby_state_f33b88|6|1 138,0,0,0,0,0,0,0,0,0,0,0,0,0,0,138,
scooby_state_f33b88|57|1 138,0,0,0,0,0,0,0,0,0,0,0,0,0,0,138,
scooby_state_f33b3c|54|1 137,0,0,0,0,0,0,0,0,0,0,0,0,0,1,138,
scooby_state_f33b3c|48|1 138,0,0,0,0,0,0,0,0,0,0,0,0,0,0,138,
scooby_state_f33b88|34|1 138,0,0,0,0,0,0,0,0,0,0,0,0,0,0,138,
scooby_state_f33b88|12|1 137,0,0,0,0,0,0,0,1,0,0,0,0,0,0,138,
scooby_state_f33b3c|41|1 138,0,0,0,0,0,0,0,0,0,0,0,0,0,0,138,
scooby_state_8e7320|13|5 9,0,0,0,42,83,0,0,0,3,0,0,0,0,1,138,
scooby_state_f33b88|58|1 138,0,0,0,0,0,0,0,0,0,0,0,0,0,0,138,
scooby_state_f33b88|26|1 138,0,0,0,0,0,0,0,0,0,0,0,0,0,0,138,
scooby_state_f33b5d|22|1 138,0,0,0,0,0,0,0,0,0,0,0,0,0,0,138,
scooby_state_f33b5d|10|1 138,0,0,0,0,0,0,0,0,0,0,0,0,0,0,138,
scooby_state_f33b4a|26|1 138,0,0,0,0,0,0,0,0,0,0,0,0,0,0,138,
scooby_state_f33b4a|27|1 138,0,0,0,0,0,0,0,0,0,0,0,0,0,0,138,
scooby_state_f33b88|24|1 138,0,0,0,0,0,0,0,0,0,0,0,0,0,0,138,
scooby_state_f33b5d|38|1 137,0,0,0,1,0,0,0,0,0,0,0,0,0,0,138,
scooby_state_f33b3c|32|1 138,0,0,0,0,0,0,0,0,0,0,0,0,0,0,138,
scooby_state_f33b5d|36|1 138,0,0,0,0,0,0,0,0,0,0,0,0,0,0,138,
scooby_state_f33b88|4|1 138,0,0,0,0,0,0,0,0,0,0,0,0,0,0,138,
scooby_state_f33b3c|45|1 138,0,0,0,0,0,0,0,0,0,0,0,0,0,0,138,
scooby_state_f33b88|20|1 137,0,0,0,0,0,0,0,0,1,0,0,0,0,0,138,
scooby_state_f33b4a|21|1 138,0,0,0,0,0,0,0,0,0,0,0,0,0,0,138,
scooby_state_f33b5d|25|1 138,0,0,0,0,0,0,0,0,0,0,0,0,0,0,138,
scooby_state_f33b4a|25|1 138,0,0,0,0,0,0,0,0,0,0,0,0,0,0,138,
scooby_state_f33b4a|38|1 138,0,0,0,0,0,0,0,0,0,0,0,0,0,0,138,
scooby_state_f33b3c|52|1 137,0,0,0,0,0,0,1,0,0,0,0,0,0,0,138,
scooby_state_f33b4a|43|1 138,0,0,0,0,0,0,0,0,0,0,0,0,0,0,138,
scooby_state_f33b4a|8|1 138,0,0,0,0,0,0,0,0,0,0,0,0,0,0,138,
scooby_state_f33b4a|15|1 138,0,0,0,0,0,0,0,0,0,0,0,0,0,0,138,
scooby_state_f33b3c|31|1 137,0,0,0,0,0,0,1,0,0,0,0,0,0,0,138,
scooby_state_f33b3c|38|1 138,0,0,0,0,0,0,0,0,0,0,0,0,0,0,138,
scooby_state_f33b88|53|1 138,0,0,0,0,0,0,0,0,0,0,0,0,0,0,138,
scooby_state_f33b88|61|1 138,0,0,0,0,0,0,0,0,0,0,0,0,0,0,138,
scooby_state_f33b3c|39|1 137,0,0,0,0,0,0,0,0,0,0,1,0,0,0,138,
scooby_state_f33b3c|53|1 136,0,0,1,0,0,0,0,0,0,0,0,0,1,0,138,
scooby_state_f33b88|17|1 138,0,0,0,0,0,0,0,0,0,0,0,0,0,0,138,
scooby_state_f33b5d|34|1 137,0,0,0,0,0,0,0,0,0,0,0,0,1,0,138,
scooby_state_f33b3c|26|1 137,0,0,0,0,0,0,0,0,0,0,0,1,0,0,138,
scooby_state_f33b5d|39|1 138,0,0,0,0,0,0,0,0,0,0,0,0,0,0,138,
scooby_state_f33b88|9|1 138,0,0,0,0,0,0,0,0,0,0,0,0,0,0,138,
scooby_state_f33b4a|13|1 137,0,0,0,0,0,0,0,0,0,1,0,0,0,0,138,
scooby_state_f33b4a|42|1 138,0,0,0,0,0,0,0,0,0,0,0,0,0,0,138,
scooby_state_f33b4a|35|1 138,0,0,0,0,0,0,0,0,0,0,0,0,0,0,138,
scooby_state_f33b5d|3|1 137,0,0,0,0,0,0,0,0,0,0,0,0,1,0,138,
scooby_state_f33b4a|52|1 138,0,0,0,0,0,0,0,0,0,0,0,0,0,0,138,
scooby_state_f33b88|27|1 138,0,0,0,0,0,0,0,0,0,0,0,0,0,0,138,
scooby_state_8e7320|28|5 9,0,0,0,41,85,0,0,0,3,0,0,0,0,0,138,
scooby_state_f33b5d|32|1 138,0,0,0,0,0,0,0,0,0,0,0,0,0,0,138,
scooby_state_f33b88|31|1 138,0,0,0,0,0,0,0,0,0,0,0,0,0,0,138,
scooby_state_f33b4a|44|1 138,0,0,0,0,0,0,0,0,0,0,0,0,0,0,138,
scooby_state_f33b3c|50|1 138,0,0,0,0,0,0,0,0,0,0,0,0,0,0,138,
scooby_state_f33b3c|15|1 136,0,0,0,0,1,0,0,0,0,1,0,0,0,0,138,
scooby_state_f33b5d|37|1 138,0,0,0,0,0,0,0,0,0,0,0,0,0,0,138,
scooby_state_f33b4a|40|1 138,0,0,0,0,0,0,0,0,0,0,0,0,0,0,138,
scooby_state_f33b5d|63|1 138,0,0,0,0,0,0,0,0,0,0,0,0,0,0,138,
scooby_state_f33b4a|56|1 137,0,0,0,0,0,0,0,0,0,0,0,0,0,0,137,
scooby_state_f33b5d|46|1 137,0,0,0,0,0,0,0,0,0,0,0,0,0,0,137,
scooby_state_f33b88|47|1 137,0,0,0,0,0,0,0,0,0,0,0,0,0,0,137,
scooby_state_8e7320|52|5 8,0,0,0,41,85,0,0,0,3,0,0,0,0,0,137,
scooby_state_f33b88|49|1 136,0,1,0,0,0,0,0,0,0,0,0,0,0,0,137,
scooby_state_f33b3c|0|0 137,0,0,0,0,0,0,0,0,0,0,0,0,0,0,137,
scooby_state_f33b88|41|1 137,0,0,0,0,0,0,0,0,0,0,0,0,0,0,137,
scooby_state_f33b5d|44|1 137,0,0,0,0,0,0,0,0,0,0,0,0,0,0,137,
scooby_state_f33b5d|49|1 136,1,0,0,0,0,0,0,0,0,0,0,0,0,0,137,
scooby_state_f33b4a|60|1 137,0,0,0,0,0,0,0,0,0,0,0,0,0,0,137,
scooby_state_f33b4a|63|1 136,0,1,0,0,0,0,0,0,0,0,0,0,0,0,137,
scooby_state_f33b3c|6|1 137,0,0,0,0,0,0,0,0,0,0,0,0,0,0,137,
scooby_state_f33b5d|53|1 137,0,0,0,0,0,0,0,0,0,0,0,0,0,0,137,
scooby_state_f33b88|44|1 137,0,0,0,0,0,0,0,0,0,0,0,0,0,0,137,
scooby_state_f33b88|45|1 135,0,1,0,0,0,0,0,0,1,0,0,0,0,0,137,
scooby_state_f33b3c|4|1 137,0,0,0,0,0,0,0,0,0,0,0,0,0,0,137,
scooby_state_f33b4a|0|0 137,0,0,0,0,0,0,0,0,0,0,0,0,0,0,137,
scooby_state_f33b5d|51|1 137,0,0,0,0,0,0,0,0,0,0,0,0,0,0,137,
scooby_state_f33b3c|2|1 136,0,0,0,0,0,0,0,0,1,0,0,0,0,0,137,
scooby_state_f33b5d|50|1 137,0,0,0,0,0,0,0,0,0,0,0,0,0,0,137,
scooby_state_f33b4a|54|1 137,0,0,0,0,0,0,0,0,0,0,0,0,0,0,137,
scooby_state_f33b88|46|1 137,0,0,0,0,0,0,0,0,0,0,0,0,0,0,137,
scooby_state_f33b3c|62|1 137,0,0,0,0,0,0,0,0,0,0,0,0,0,0,137,
scooby_state_f33b4a|53|1 137,0,0,0,0,0,0,0,0,0,0,0,0,0,0,137,
scooby_state_f33b5d|56|1 137,0,0,0,0,0,0,0,0,0,0,0,0,0,0,137,
scooby_state_f33b3c|3|1 137,0,0,0,0,0,0,0,0,0,0,0,0,0,0,137,
scooby_state_f33b4a|59|1 137,0,0,0,0,0,0,0,0,0,0,0,0,0,0,137,
scooby_state_f33b4a|62|1 137,0,0,0,0,0,0,0,0,0,0,0,0,0,0,137,
scooby_state_f33b4a|58|1 136,0,0,0,0,0,0,0,0,0,0,0,0,0,1,137,
scooby_state_f33b4a|57|1 137,0,0,0,0,0,0,0,0,0,0,0,0,0,0,137,
scooby_state_f33b3c|1|1 137,0,0,0,0,0,0,0,0,0,0,0,0,0,0,137,
scooby_state_f33b88|48|1 137,0,0,0,0,0,0,0,0,0,0,0,0,0,0,137,
scooby_state_f33b88|40|1 135,0,0,0,0,0,0,0,1,0,0,0,0,1,0,137,
scooby_state_f33b3c|5|1 137,0,0,0,0,0,0,0,0,0,0,0,0,0,0,137,
scooby_state_f33b4a|1|1 137,0,0,0,0,0,0,0,0,0,0,0,0,0,0,137,
scooby_state_f33b5d|54|1 136,0,0,1,0,0,0,0,0,0,0,0,0,0,0,137,
scooby_state_f33b4a|61|1 137,0,0,0,0,0,0,0,0,0,0,0,0,0,0,137,
scooby_state_f33b5d|52|1 137,0,0,0,0,0,0,0,0,0,0,0,0,0,0,137,
scooby_state_f33b3c|59|1 137,0,0,0,0,0,0,0,0,0,0,0,0,0,0,137,
scooby_state_f33b3c|61|1 136,1,0,0,0,0,0,0,0,0,0,0,0,0,0,137,
scooby_state_8e7320|57|5 7,0,0,0,31,95,0,0,0,3,0,0,0,0,1,137,
scooby_state_f33b5d|47|1 136,1,0,0,0,0,0,0,0,0,0,0,0,0,0,137,
scooby_state_f33b88|42|1 137,0,0,0,0,0,0,0,0,0,0,0,0,0,0,137,
scooby_state_f33b5d|55|1 137,0,0,0,0,0,0,0,0,0,0,0,0,0,0,137,
scooby_state_f33b5d|45|1 137,0,0,0,0,0,0,0,0,0,0,0,0,0,0,137,
scooby_state_f33b5d|48|1 137,0,0,0,0,0,0,0,0,0,0,0,0,0,0,137,
scooby_state_f33b88|43|1 137,0,0,0,0,0,0,0,0,0,0,0,0,0,0,137,
scooby_state_f33b3c|63|1 136,0,0,1,0,0,0,0,0,0,0,0,0,0,0,137,
scooby_state_f33b88|39|1 137,0,0,0,0,0,0,0,0,0,0,0,0,0,0,137,
scooby_state_f33b88|50|1 137,0,0,0,0,0,0,0,0,0,0,0,0,0,0,137,
scooby_state_f33b4a|55|1 137,0,0,0,0,0,0,0,0,0,0,0,0,0,0,137,
scooby_state_f33b3c|60|1 137,0,0,0,0,0,0,0,0,0,0,0,0,0,0,137,
scooby_state_8e7320|16|5 8,0,0,0,39,85,0,0,0,3,0,0,0,0,1,136,
scooby_state_8e7320|27|5 8,1,0,0,40,83,0,0,0,3,0,0,0,0,1,136,
scooby_state_8e7320|24|5 6,0,0,0,38,88,0,0,0,3,0,0,0,0,1,136,
scooby_state_f33824|0|0 136,0,0,0,0,0,0,0,0,0,0,0,0,0,0,136,
scooby_state_8e7320|47|5 9,0,0,0,35,89,0,0,0,3,0,0,0,0,0,136,
scooby_state_8e7320|46|5 8,0,0,0,36,88,0,0,0,3,0,0,0,0,1,136,
scooby_state_f33824|57|1 134,0,0,0,0,0,0,0,0,0,0,0,0,1,0,135,
scooby_state_f33824|60|1 135,0,0,0,0,0,0,0,0,0,0,0,0,0,0,135,
scooby_state_f33838|7|1 135,0,0,0,0,0,0,0,0,0,0,0,0,0,0,135,
scooby_state_f33838|33|1 135,0,0,0,0,0,0,0,0,0,0,0,0,0,0,135,
scooby_state_f33838|55|1 135,0,0,0,0,0,0,0,0,0,0,0,0,0,0,135,
scooby_state_f33824|18|1 135,0,0,0,0,0,0,0,0,0,0,0,0,0,0,135,
scooby_state_f33824|17|1 135,0,0,0,0,0,0,0,0,0,0,0,0,0,0,135,
scooby_state_f33838|27|1 134,0,0,0,0,0,0,0,0,1,0,0,0,0,0,135,
scooby_state_f33824|39|1 135,0,0,0,0,0,0,0,0,0,0,0,0,0,0,135,
scooby_state_f33824|38|1 135,0,0,0,0,0,0,0,0,0,0,0,0,0,0,135,
scooby_state_f33838|36|1 135,0,0,0,0,0,0,0,0,0,0,0,0,0,0,135,
scooby_state_f33838|30|1 133,0,0,0,0,1,0,0,0,0,0,0,1,0,0,135,
scooby_state_f33824|41|1 134,0,0,0,0,0,0,1,0,0,0,0,0,0,0,135,
scooby_state_f33824|63|1 135,0,0,0,0,0,0,0,0,0,0,0,0,0,0,135,
scooby_state_f33838|52|1 135,0,0,0,0,0,0,0,0,0,0,0,0,0,0,135,
scooby_state_f33838|38|1 135,0,0,0,0,0,0,0,0,0,0,0,0,0,0,135,
scooby_state_8e7320|12|5 6,0,0,0,37,87,0,0,0,4,0,0,0,0,1,135,
scooby_state_f33824|62|1 134,0,0,0,0,0,0,0,0,1,0,0,0,0,0,135,
scooby_state_f33838|12|1 135,0,0,0,0,0,0,0,0,0,0,0,0,0,0,135,
scooby_state_f33838|37|1 135,0,0,0,0,0,0,0,0,0,0,0,0,0,0,135,
scooby_state_f33824|55|1 135,0,0,0,0,0,0,0,0,0,0,0,0,0,0,135,
scooby_state_f33824|56|1 135,0,0,0,0,0,0,0,0,0,0,0,0,0,0,135,
scooby_state_f33824|58|1 135,0,0,0,0,0,0,0,0,0,0,0,0,0,0,135,
scooby_state_f33838|0|0 134,0,0,0,0,0,0,1,0,0,0,0,0,0,0,135,
scooby_state_8e7320|14|5 8,0,0,0,35,88,0,0,0,3,0,0,0,0,1,135,
scooby_state_f33838|11|1 135,0,0,0,0,0,0,0,0,0,0,0,0,0,0,135,
scooby_state_f33824|19|1 135,0,0,0,0,0,0,0,0,0,0,0,0,0,0,135,
scooby_state_f33838|31|1 135,0,0,0,0,0,0,0,0,0,0,0,0,0,0,135,
scooby_state_f33838|10|1 135,0,0,0,0,0,0,0,0,0,0,0,0,0,0,135,
scooby_state_f33824|61|1 135,0,0,0,0,0,0,0,0,0,0,0,0,0,0,135,
scooby_state_f33838|29|1 134,0,0,0,0,0,0,1,0,0,0,0,0,0,0,135,
scooby_state_f33838|53|1 135,0,0,0,0,0,0,0,0,0,0,0,0,0,0,135,
scooby_state_f33838|34|1 135,0,0,0,0,0,0,0,0,0,0,0,0,0,0,135,
scooby_state_f33824|37|1 135,0,0,0,0,0,0,0,0,0,0,0,0,0,0,135,
scooby_state_f33838|54|1 135,0,0,0,0,0,0,0,0,0,0,0,0,0,0,135,
scooby_state_f33824|2|1 135,0,0,0,0,0,0,0,0,0,0,0,0,0,0,135,
scooby_state_f33824|40|1 135,0,0,0,0,0,0,0,0,0,0,0,0,0,0,135,
scooby_state_f33824|59|1 135,0,0,0,0,0,0,0,0,0,0,0,0,0,0,135,
scooby_state_f33824|1|1 135,0,0,0,0,0,0,0,0,0,0,0,0,0,0,135,
scooby_state_f33824|21|1 135,0,0,0,0,0,0,0,0,0,0,0,0,0,0,135,
scooby_state_f33838|28|1 135,0,0,0,0,0,0,0,0,0,0,0,0,0,0,135,
scooby_state_f33838|26|1 135,0,0,0,0,0,0,0,0,0,0,0,0,0,0,135,
scooby_state_f33838|35|1 135,0,0,0,0,0,0,0,0,0,0,0,0,0,0,135,
scooby_state_f33824|3|1 135,0,0,0,0,0,0,0,0,0,0,0,0,0,0,135,
scooby_state_f33838|8|1 135,0,0,0,0,0,0,0,0,0,0,0,0,0,0,135,
scooby_state_f33838|56|1 135,0,0,0,0,0,0,0,0,0,0,0,0,0,0,135,
scooby_state_f33838|9|1 135,0,0,0,0,0,0,0,0,0,0,0,0,0,0,135,
scooby_state_f33838|57|1 135,0,0,0,0,0,0,0,0,0,0,0,0,0,0,135,
scooby_state_f33824|22|1 135,0,0,0,0,0,0,0,0,0,0,0,0,0,0,135,
scooby_state_f33824|36|1 135,0,0,0,0,0,0,0,0,0,0,0,0,0,0,135,
scooby_state_f33824|20|1 135,0,0,0,0,0,0,0,0,0,0,0,0,0,0,135,
scooby_state_f33838|32|1 135,0,0,0,0,0,0,0,0,0,0,0,0,0,0,135,
scooby_state_f33838|43|1 134,0,0,0,0,0,0,0,0,0,0,0,0,0,0,134,
scooby_state_f33824|51|1 134,0,0,0,0,0,0,0,0,0,0,0,0,0,0,134,
scooby_state_f33838|20|1 134,0,0,0,0,0,0,0,0,0,0,0,0,0,0,134,
scooby_state_f33838|21|1 134,0,0,0,0,0,0,0,0,0,0,0,0,0,0,134,
scooby_state_f33838|44|1 134,0,0,0,0,0,0,0,0,0,0,0,0,0,0,134,
scooby_state_f33838|48|1 134,0,0,0,0,0,0,0,0,0,0,0,0,0,0,134,
scooby_state_f33824|48|1 134,0,0,0,0,0,0,0,0,0,0,0,0,0,0,134,
scooby_state_f33838|14|1 134,0,0,0,0,0,0,0,0,0,0,0,0,0,0,134,
scooby_state_f33838|1|1 133,0,0,0,0,0,0,0,0,0,0,1,0,0,0,134,
scooby_state_f33824|13|1 134,0,0,0,0,0,0,0,0,0,0,0,0,0,0,134,
scooby_state_f33824|49|1 134,0,0,0,0,0,0,0,0,0,0,0,0,0,0,134,
scooby_state_f33824|26|1 133,0,0,0,0,0,0,0,0,0,0,1,0,0,0,134,
scooby_state_f33824|14|1 134,0,0,0,0,0,0,0,0,0,0,0,0,0,0,134,
scooby_state_f33824|35|1 134,0,0,0,0,0,0,0,0,0,0,0,0,0,0,134,
scooby_state_f33824|42|1 133,0,0,0,0,1,0,0,0,0,0,0,0,0,0,134,
scooby_state_f33838|46|1 134,0,0,0,0,0,0,0,0,0,0,0,0,0,0,134,
scooby_state_f33824|45|1 134,0,0,0,0,0,0,0,0,0,0,0,0,0,0,134,
scooby_state_f33838|19|1 134,0,0,0,0,0,0,0,0,0,0,0,0,0,0,134,
scooby_state_f33838|18|1 134,0,0,0,0,0,0,0,0,0,0,0,0,0,0,134,
scooby_state_8e7320|23|5 9,0,0,0,31,91,0,0,0,3,0,0,0,0,0,134,
scooby_state_f33824|8|1 134,0,0,0,0,0,0,0,0,0,0,0,0,0,0,134,
scooby_state_f33824|12|1 133,0,0,0,0,0,0,0,0,0,1,0,0,0,0,134,
scooby_state_1414b90|10|1 134,0,0,0,0,0,0,0,0,0,0,0,0,0,0,134,
scooby_state_f33838|3|1 134,0,0,0,0,0,0,0,0,0,0,0,0,0,0,134,
scooby_state_f33824|44|1 134,0,0,0,0,0,0,0,0,0,0,0,0,0,0,134,
scooby_state_f33824|30|1 134,0,0,0,0,0,0,0,0,0,0,0,0,0,0,134,
scooby_state_f33838|62|1 134,0,0,0,0,0,0,0,0,0,0,0,0,0,0,134,
scooby_state_f33824|7|1 133,0,0,0,0,0,0,0,0,0,0,0,0,1,0,134,
scooby_state_f33838|51|1 133,0,0,0,0,0,0,0,0,0,0,0,1,0,0,134,
scooby_state_f33838|4|1 134,0,0,0,0,0,0,0,0,0,0,0,0,0,0,134,
scooby_state_f33824|34|1 134,0,0,0,0,0,0,0,0,0,0,0,0,0,0,134,
scooby_state_f33824|23|1 134,0,0,0,0,0,0,0,0,0,0,0,0,0,0,134,
scooby_state_f33824|47|1 134,0,0,0,0,0,0,0,0,0,0,0,0,0,0,134,
scooby_state_f33824|9|1 133,0,1,0,0,0,0,0,0,0,0,0,0,0,0,134,
scooby_state_f33824|33|1 134,0,0,0,0,0,0,0,0,0,0,0,0,0,0,134,
scooby_state_8e7320|19|5 7,0,0,0,27,97,0,0,0,3,0,0,0,0,0,134,
scooby_state_f33838|42|1 134,0,0,0,0,0,0,0,0,0,0,0,0,0,0,134,
scooby_state_f33838|58|1 134,0,0,0,0,0,0,0,0,0,0,0,0,0,0,134,
scooby_state_8e7320|17|5 7,0,0,0,32,91,0,0,0,3,0,0,0,0,1,134,
scooby_state_f33824|16|1 133,0,0,0,0,0,0,0,0,1,0,0,0,0,0,134,
scooby_state_f33824|25|1 134,0,0,0,0,0,0,0,0,0,0,0,0,0,0,134,
scooby_state_1414b90|55|1 133,0,0,1,0,0,0,0,0,0,0,0,0,0,0,134,
scooby_state_f33838|63|1 134,0,0,0,0,0,0,0,0,0,0,0,0,0,0,134,
scooby_state_f33824|52|1 134,0,0,0,0,0,0,0,0,0,0,0,0,0,0,134,
scooby_state_f33824|28|1 134,0,0,0,0,0,0,0,0,0,0,0,0,0,0,134,
scooby_state_1414b90|29|1 134,0,0,0,0,0,0,0,0,0,0,0,0,0,0,134,
scooby_state_f33824|10|1 134,0,0,0,0,0,0,0,0,0,0,0,0,0,0,134,
scooby_state_f33838|50|1 134,0,0,0,0,0,0,0,0,0,0,0,0,0,0,134,
scooby_state_f33838|59|1 133,1,0,0,0,0,0,0,0,0,0,0,0,0,0,134,
scooby_state_f33824|11|1 134,0,0,0,0,0,0,0,0,0,0,0,0,0,0,134,
scooby_state_f33838|60|1 134,0,0,0,0,0,0,0,0,0,0,0,0,0,0,134,
scooby_state_f33824|27|1 133,0,0,0,0,0,1,0,0,0,0,0,0,0,0,134,
scooby_state_f33838|25|1 134,0,0,0,0,0,0,0,0,0,0,0,0,0,0,134,
scooby_state_f33838|6|1 133,0,0,0,0,0,1,0,0,0,0,0,0,0,0,134,
scooby_state_f33838|45|1 134,0,0,0,0,0,0,0,0,0,0,0,0,0,0,134,
scooby_state_f33824|24|1 134,0,0,0,0,0,0,0,0,0,0,0,0,0,0,134,
scooby_state_f33838|17|1 134,0,0,0,0,0,0,0,0,0,0,0,0,0,0,134,
scooby_state_8e7620|50|5 9,0,2,0,39,84,0,0,0,0,0,0,0,0,0,134,
scooby_state_f33838|47|1 133,0,1,0,0,0,0,0,0,0,0,0,0,0,0,134,
scooby_state_f33838|23|1 134,0,0,0,0,0,0,0,0,0,0,0,0,0,0,134,
scooby_state_f33824|4|1 134,0,0,0,0,0,0,0,0,0,0,0,0,0,0,134,
scooby_state_f33824|43|1 134,0,0,0,0,0,0,0,0,0,0,0,0,0,0,134,
scooby_state_f33838|49|1 134,0,0,0,0,0,0,0,0,0,0,0,0,0,0,134,
scooby_state_f33838|22|1 134,0,0,0,0,0,0,0,0,0,0,0,0,0,0,134,
scooby_state_f33838|16|1 134,0,0,0,0,0,0,0,0,0,0,0,0,0,0,134,
scooby_state_8e7320|21|5 8,0,0,0,31,92,0,0,0,3,0,0,0,0,0,134,
scooby_state_f33838|13|1 134,0,0,0,0,0,0,0,0,0,0,0,0,0,0,134,
scooby_state_f33824|29|1 134,0,0,0,0,0,0,0,0,0,0,0,0,0,0,134,
scooby_state_f33838|5|1 134,0,0,0,0,0,0,0,0,0,0,0,0,0,0,134,
scooby_state_1414b90|56|1 134,0,0,0,0,0,0,0,0,0,0,0,0,0,0,134,
scooby_state_f33838|41|1 134,0,0,0,0,0,0,0,0,0,0,0,0,0,0,134,
scooby_state_f33824|46|1 132,0,0,1,0,1,0,0,0,0,0,0,0,0,0,134,
scooby_state_f33838|2|1 133,0,1,0,0,0,0,0,0,0,0,0,0,0,0,134,
scooby_state_f33838|61|1 134,0,0,0,0,0,0,0,0,0,0,0,0,0,0,134,
scooby_state_f33838|39|1 134,0,0,0,0,0,0,0,0,0,0,0,0,0,0,134,
scooby_state_f33824|5|1 134,0,0,0,0,0,0,0,0,0,0,0,0,0,0,134,
scooby_state_f33824|15|1 134,0,0,0,0,0,0,0,0,0,0,0,0,0,0,134,
scooby_state_f33824|6|1 134,0,0,0,0,0,0,0,0,0,0,0,0,0,0,134,
scooby_state_f33824|50|1 134,0,0,0,0,0,0,0,0,0,0,0,0,0,0,134,
scooby_state_1414b90|12|1 134,0,0,0,0,0,0,0,0,0,0,0,0,0,0,134,
scooby_state_f33824|32|1 134,0,0,0,0,0,0,0,0,0,0,0,0,0,0,134,
scooby_state_f33824|54|1 134,0,0,0,0,0,0,0,0,0,0,0,0,0,0,134,
scooby_state_f33838|15|1 134,0,0,0,0,0,0,0,0,0,0,0,0,0,0,134,
scooby_state_f33838|24|1 134,0,0,0,0,0,0,0,0,0,0,0,0,0,0,134,
scooby_state_f33838|40|1 134,0,0,0,0,0,0,0,0,0,0,0,0,0,0,134,
scooby_state_f33824|53|1 134,0,0,0,0,0,0,0,0,0,0,0,0,0,0,134,
scooby_state_f33824|31|1 134,0,0,0,0,0,0,0,0,0,0,0,0,0,0,134,
scooby_state_f33e13|37|1 133,0,0,0,0,0,0,0,0,0,0,0,0,0,0,133,
scooby_state_9047ec|10|1 133,0,0,0,0,0,0,0,0,0,0,0,0,0,0,133,
scooby_state_f33e13|35|1 132,1,0,0,0,0,0,0,0,0,0,0,0,0,0,133,
scooby_state_8e7620|33|5 7,0,3,0,38,85,0,0,0,0,0,0,0,0,0,133,
scooby_state_904763|54|1 133,0,0,0,0,0,0,0,0,0,0,0,0,0,0,133,
scooby_state_8e7620|32|5 7,0,3,0,39,82,0,0,1,0,0,0,0,0,1,133,
scooby_state_8e7620|48|5 9,0,3,0,37,84,0,0,0,0,0,0,0,0,0,133,
scooby_state_f335b5|7|1 133,0,0,0,0,0,0,0,0,0,0,0,0,0,0,133,
scooby_state_8e7620|54|5 7,0,3,0,44,78,0,0,0,1,0,0,0,0,0,133,
scooby_state_904763|38|1 132,0,0,0,0,0,0,0,0,0,0,1,0,0,0,133,
scooby_state_9047ec|57|1 133,0,0,0,0,0,0,0,0,0,0,0,0,0,0,133,
scooby_state_f33e2b|9|1 133,0,0,0,0,0,0,0,0,0,0,0,0,0,0,133,
scooby_state_904763|55|1 133,0,0,0,0,0,0,0,0,0,0,0,0,0,0,133,
scooby_state_f33e2b|37|1 133,0,0,0,0,0,0,0,0,0,0,0,0,0,0,133,
scooby_state_904763|7|1 133,0,0,0,0,0,0,0,0,0,0,0,0,0,0,133,
scooby_state_f335b5|52|1 133,0,0,0,0,0,0,0,0,0,0,0,0,0,0,133,
scooby_state_1414b90|24|1 133,0,0,0,0,0,0,0,0,0,0,0,0,0,0,133,
scooby_state_9047ec|55|1 132,0,0,0,0,0,0,0,0,0,0,0,0,1,0,133,
scooby_state_8e7620|52|5 7,0,3,0,44,79,0,0,0,0,0,0,0,0,0,133,
scooby_state_f335b5|38|1 133,0,0,0,0,0,0,0,0,0,0,0,0,0,0,133,
scooby_state_90b50d|12|1 133,0,0,0,0,0,0,0,0,0,0,0,0,0,0,133,
scooby_state_8e7620|47|5 8,0,2,0,36,87,0,0,0,0,0,0,0,0,0,133,
scooby_state_90b50d|33|1 133,0,0,0,0,0,0,0,0,0,0,0,0,0,0,133,
scooby_state_1415010|34|1 133,0,0,0,0,0,0,0,0,0,0,0,0,0,0,133,
scooby_state_9047ec|56|1 133,0,0,0,0,0,0,0,0,0,0,0,0,0,0,133,
scooby_state_8e7620|31|5 8,0,2,0,41,82,0,0,0,0,0,0,0,0,0,133,
scooby_state_f335ab|14|1 132,0,1,0,0,0,0,0,0,0,0,0,0,0,0,133,
scooby_state_1414b90|37|1 133,0,0,0,0,0,0,0,0,0,0,0,0,0,0,133,
scooby_state_f335ab|57|1 133,0,0,0,0,0,0,0,0,0,0,0,0,0,0,133,
scooby_state_90b50d|8|1 133,0,0,0,0,0,0,0,0,0,0,0,0,0,0,133,
scooby_state_9047ec|0|0 133,0,0,0,0,0,0,0,0,0,0,0,0,0,0,133,
scooby_state_f335ab|61|1 132,0,0,0,0,0,0,1,0,0,0,0,0,0,0,133,
scooby_state_f33e2b|7|1 133,0,0,0,0,0,0,0,0,0,0,0,0,0,0,133,
scooby_state_904763|57|1 133,0,0,0,0,0,0,0,0,0,0,0,0,0,0,133,
scooby_state_1415010|0|0 133,0,0,0,0,0,0,0,0,0,0,0,0,0,0,133,
scooby_state_9047ec|9|1 133,0,0,0,0,0,0,0,0,0,0,0,0,0,0,133,
scooby_state_904763|9|1 132,0,0,0,0,0,0,0,0,0,0,0,0,0,1,133,
scooby_state_f335b5|53|1 131,0,0,0,1,0,0,0,0,0,0,0,0,1,0,133,
scooby_state_9047ec|53|1 133,0,0,0,0,0,0,0,0,0,0,0,0,0,0,133,
scooby_state_f33e03|44|1 133,0,0,0,0,0,0,0,0,0,0,0,0,0,0,133,
scooby_state_9047ec|12|1 133,0,0,0,0,0,0,0,0,0,0,0,0,0,0,133,
scooby_state_9047ec|36|1 132,0,0,1,0,0,0,0,0,0,0,0,0,0,0,133,
scooby_state_904763|37|1 133,0,0,0,0,0,0,0,0,0,0,0,0,0,0,133,
scooby_state_90b50d|53|1 132,0,0,0,0,0,0,0,0,0,0,0,0,0,1,133,
scooby_state_1414b90|48|1 133,0,0,0,0,0,0,0,0,0,0,0,0,0,0,133,
scooby_state_1414b90|41|1 133,0,0,0,0,0,0,0,0,0,0,0,0,0,0,133,
scooby_state_8e7620|55|5 8,0,3,0,37,85,0,0,0,0,0,0,0,0,0,133,
scooby_state_904763|52|1 133,0,0,0,0,0,0,0,0,0,0,0,0,0,0,133,
scooby_state_9047ec|11|1 133,0,0,0,0,0,0,0,0,0,0,0,0,0,0,133,
scooby_state_f335ab|62|1 133,0,0,0,0,0,0,0,0,0,0,0,0,0,0,133,
scooby_state_f33e2b|8|1 133,0,0,0,0,0,0,0,0,0,0,0,0,0,0,133,
scooby_state_f33e2b|57|1 133,0,0,0,0,0,0,0,0,0,0,0,0,0,0,133,
scooby_state_904763|53|1 133,0,0,0,0,0,0,0,0,0,0,0,0,0,0,133,
scooby_state_90b50d|54|1 133,0,0,0,0,0,0,0,0,0,0,0,0,0,0,133,
scooby_state_f33e2b|35|1 133,0,0,0,0,0,0,0,0,0,0,0,0,0,0,133,
scooby_state_f335ab|60|1 133,0,0,0,0,0,0,0,0,0,0,0,0,0,0,133,
scooby_state_90b50d|35|1 132,0,0,0,0,0,0,0,0,0,0,1,0,0,0,133,
scooby_state_1414b90|57|1 132,0,0,0,0,0,0,1,0,0,0,0,0,0,0,133,
scooby_state_9047ec|7|1 132,0,0,0,0,0,0,0,0,0,1,0,0,0,0,133,
scooby_state_f33e13|13|1 133,0,0,0,0,0,0,0,0,0,0,0,0,0,0,133,
scooby_state_9047ec|38|1 132,0,0,0,0,0,0,1,0,0,0,0,0,0,0,133,
scooby_state_f33e13|56|1 133,0,0,0,0,0,0,0,0,0,0,0,0,0,0,133,
scooby_state_8e7320|26|5 7,0,0,0,33,89,0,0,0,3,0,0,0,0,1,133,
scooby_state_90b50d|7|1 132,0,0,0,0,0,0,0,0,1,0,0,0,0,0,133,
scooby_state_9047ec|33|1 133,0,0,0,0,0,0,0,0,0,0,0,0,0,0,133,
scooby_state_f33e03|15|1 133,0,0,0,0,0,0,0,0,0,0,0,0,0,0,133,
scooby_state_f33e03|16|1 133,0,0,0,0,0,0,0,0,0,0,0,0,0,0,133,
scooby_state_f33e03|18|1 133,0,0,0,0,0,0,0,0,0,0,0,0,0,0,133,
scooby_state_f33e2b|11|1 133,0,0,0,0,0,0,0,0,0,0,0,0,0,0,133,
scooby_state_f33e13|14|1 133,0,0,0,0,0,0,0,0,0,0,0,0,0,0,133,
scooby_state_f335ab|36|1 133,0,0,0,0,0,0,0,0,0,0,0,0,0,0,133,
scooby_state_f33e2b|55|1 132,1,0,0,0,0,0,0,0,0,0,0,0,0,0,133,
scooby_state_1415010|8|1 133,0,0,0,0,0,0,0,0,0,0,0,0,0,0,133,
scooby_state_f33e13|39|1 133,0,0,0,0,0,0,0,0,0,0,0,0,0,0,133,
scooby_state_f33e13|40|1 132,0,0,0,0,0,0,0,0,0,1,0,0,0,0,133,
scooby_state_f33e2b|36|1 132,0,0,0,0,0,0,0,0,0,0,0,0,0,1,133,
scooby_state_f33e03|56|1 133,0,0,0,0,0,0,0,0,0,0,0,0,0,0,133,
scooby_state_f335b5|56|1 133,0,0,0,0,0,0,0,0,0,0,0,0,0,0,133,
scooby_state_f33e13|38|1 133,0,0,0,0,0,0,0,0,0,0,0,0,0,0,133,
scooby_state_90b50d|37|1 133,0,0,0,0,0,0,0,0,0,0,0,0,0,0,133,
scooby_state_f335ab|59|1 132,0,1,0,0,0,0,0,0,0,0,0,0,0,0,133,
scooby_state_9047ec|35|1 133,0,0,0,0,0,0,0,0,0,0,0,0,0,0,133,
scooby_state_f33e13|10|1 133,0,0,0,0,0,0,0,0,0,0,0,0,0,0,133,
scooby_state_1415010|53|1 133,0,0,0,0,0,0,0,0,0,0,0,0,0,0,133,
scooby_state_f33e13|11|1 133,0,0,0,0,0,0,0,0,0,0,0,0,0,0,133,
scooby_state_f335ab|33|1 133,0,0,0,0,0,0,0,0,0,0,0,0,0,0,133,
scooby_state_f33e2b|53|1 133,0,0,0,0,0,0,0,0,0,0,0,0,0,0,133,
scooby_state_f33e13|55|1 133,0,0,0,0,0,0,0,0,0,0,0,0,0,0,133,
scooby_state_f33e2b|56|1 132,0,0,0,0,0,1,0,0,0,0,0,0,0,0,133,
scooby_state_f33e03|63|1 133,0,0,0,0,0,0,0,0,0,0,0,0,0,0,133,
scooby_state_f33e13|58|1 132,0,0,0,0,0,0,0,0,0,0,0,1,0,0,133,
scooby_state_1414b90|61|1 133,0,0,0,0,0,0,0,0,0,0,0,0,0,0,133,
scooby_state_8e7620|49|5 8,0,2,0,39,84,0,0,0,0,0,0,0,0,0,133,
scooby_state_904763|11|1 133,0,0,0,0,0,0,0,0,0,0,0,0,0,0,133,
scooby_state_90b50d|36|1 133,0,0,0,0,0,0,0,0,0,0,0,0,0,0,133,
scooby_state_1415010|54|1 133,0,0,0,0,0,0,0,0,0,0,0,0,0,0,133,
scooby_state_f33e13|0|0 133,0,0,0,0,0,0,0,0,0,0,0,0,0,0,133,
scooby_state_f335b5|12|1 133,0,0,0,0,0,0,0,0,0,0,0,0,0,0,133,
scooby_state_f335ab|35|1 133,0,0,0,0,0,0,0,0,0,0,0,0,0,0,133,
scooby_state_f33e2b|0|0 133,0,0,0,0,0,0,0,0,0,0,0,0,0,0,133,
scooby_state_f33e13|9|1 133,0,0,0,0,0,0,0,0,0,0,0,0,0,0,133,
scooby_state_f335b5|10|1 133,0,0,0,0,0,0,0,0,0,0,0,0,0,0,133,
scooby_state_90b50d|55|1 133,0,0,0,0,0,0,0,0,0,0,0,0,0,0,133,
scooby_state_f335b5|37|1 133,0,0,0,0,0,0,0,0,0,0,0,0,0,0,133,
scooby_state_904763|56|1 133,0,0,0,0,0,0,0,0,0,0,0,0,0,0,133,
scooby_state_f335b5|36|1 133,0,0,0,0,0,0,0,0,0,0,0,0,0,0,133,
scooby_state_f335b5|54|1 132,1,0,0,0,0,0,0,0,0,0,0,0,0,0,133,
scooby_state_f335ab|58|1 133,0,0,0,0,0,0,0,0,0,0,0,0,0,0,133,
scooby_state_f335b5|33|1 133,0,0,0,0,0,0,0,0,0,0,0,0,0,0,133,
scooby_state_f335b5|57|1 133,0,0,0,0,0,0,0,0,0,0,0,0,0,0,133,
scooby_state_f33e03|17|1 133,0,0,0,0,0,0,0,0,0,0,0,0,0,0,133,
scooby_state_f33e13|36|1 133,0,0,0,0,0,0,0,0,0,0,0,0,0,0,133,
scooby_state_904763|34|1 133,0,0,0,0,0,0,0,0,0,0,0,0,0,0,133,
scooby_state_1414b90|22|1 133,0,0,0,0,0,0,0,0,0,0,0,0,0,0,133,
scooby_state_f33e13|57|1 133,0,0,0,0,0,0,0,0,0,0,0,0,0,0,133,
scooby_state_90b50d|0|0 133,0,0,0,0,0,0,0,0,0,0,0,0,0,0,133,
scooby_state_f33e03|61|1 133,0,0,0,0,0,0,0,0,0,0,0,0,0,0,133,
scooby_state_f335b5|11|1 133,0,0,0,0,0,0,0,0,0,0,0,0,0,0,133,
scooby_state_f335ab|0|0 133,0,0,0,0,0,0,0,0,0,0,0,0,0,0,133,
scooby_state_f33e13|54|1 132,0,0,0,0,1,0,0,0,0,0,0,0,0,0,133,
scooby_state_f33e03|14|1 133,0,0,0,0,0,0,0,0,0,0,0,0,0,0,133,
scooby_state_f335ab|12|1 132,0,0,0,0,1,0,0,0,0,0,0,0,0,0,133,
scooby_state_f33e13|59|1 133,0,0,0,0,0,0,0,0,0,0,0,0,0,0,133,
scooby_state_f335ab|16|1 132,0,0,0,0,0,0,0,0,0,0,1,0,0,0,133,
scooby_state_90b50d|52|1 133,0,0,0,0,0,0,0,0,0,0,0,0,0,0,133,
scooby_state_f335ab|15|1 133,0,0,0,0,0,0,0,0,0,0,0,0,0,0,133,
scooby_state_904763|0|0 132,0,0,0,0,1,0,0,0,0,0,0,0,0,0,133,
scooby_state_f335b5|34|1 132,0,0,0,0,1,0,0,0,0,0,0,0,0,0,133,
scooby_state_904763|35|1 133,0,0,0,0,0,0,0,0,0,0,0,0,0,0,133,
scooby_state_f335b5|55|1 133,0,0,0,0,0,0,0,0,0,0,0,0,0,0,133,
scooby_state_f33e03|62|1 133,0,0,0,0,0,0,0,0,0,0,0,0,0,0,133,
scooby_state_f33e03|19|1 133,0,0,0,0,0,0,0,0,0,0,0,0,0,0,133,
scooby_state_904763|12|1 133,0,0,0,0,0,0,0,0,0,0,0,0,0,0,133,
scooby_state_90b50d|9|1 133,0,0,0,0,0,0,0,0,0,0,0,0,0,0,133,
scooby_state_f335ab|17|1 133,0,0,0,0,0,0,0,0,0,0,0,0,0,0,133,
scooby_state_f33e2b|52|1 133,0,0,0,0,0,0,0,0,0,0,0,0,0,0,133,
scooby_state_904763|10|1 132,0,0,0,0,1,0,0,0,0,0,0,0,0,0,133,
scooby_state_904763|33|1 133,0,0,0,0,0,0,0,0,0,0,0,0,0,0,133,
scooby_state_90b50d|56|1 133,0,0,0,0,0,0,0,0,0,0,0,0,0,0,133,
scooby_state_9047ec|8|1 133,0,0,0,0,0,0,0,0,0,0,0,0,0,0,133,
scooby_state_9047ec|52|1 133,0,0,0,0,0,0,0,0,0,0,0,0,0,0,133,
scooby_state_f33e03|40|1 133,0,0,0,0,0,0,0,0,0,0,0,0,0,0,133,
scooby_state_f33e2b|33|1 133,0,0,0,0,0,0,0,0,0,0,0,0,0,0,133,
scooby_state_1414b90|49|1 133,0,0,0,0,0,0,0,0,0,0,0,0,0,0,133,
scooby_state_f33e03|59|1 133,0,0,0,0,0,0,0,0,0,0,0,0,0,0,133,
scooby_state_1415010|55|1 133,0,0,0,0,0,0,0,0,0,0,0,0,0,0,133,
scooby_state_1414b90|35|1 133,0,0,0,0,0,0,0,0,0,0,0,0,0,0,133,
scooby_state_f33e2b|12|1 131,0,0,0,0,0,1,0,0,1,0,0,0,0,0,133,
scooby_state_f335b5|0|0 133,0,0,0,0,0,0,0,0,0,0,0,0,0,0,133,
scooby_state_904763|8|1 133,0,0,0,0,0,0,0,0,0,0,0,0,0,0,133,
scooby_state_f335ab|32|1 133,0,0,0,0,0,0,0,0,0,0,0,0,0,0,133,
scooby_state_f33e2b|10|1 133,0,0,0,0,0,0,0,0,0,0,0,0,0,0,133,
scooby_state_f33e2b|34|1 133,0,0,0,0,0,0,0,0,0,0,0,0,0,0,133,
scooby_state_904763|36|1 133,0,0,0,0,0,0,0,0,0,0,0,0,0,0,133,
scooby_state_f33e13|12|1 133,0,0,0,0,0,0,0,0,0,0,0,0,0,0,133,
scooby_state_f33e2b|38|1 133,0,0,0,0,0,0,0,0,0,0,0,0,0,0,133,
scooby_state_90b50d|11|1 133,0,0,0,0,0,0,0,0,0,0,0,0,0,0,133,
scooby_state_f335ab|34|1 133,0,0,0,0,0,0,0,0,0,0,0,0,0,0,133,
scooby_state_90b50d|38|1 133,0,0,0,0,0,0,0,0,0,0,0,0,0,0,133,
scooby_state_90b50d|57|1 133,0,0,0,0,0,0,0,0,0,0,0,0,0,0,133,
scooby_state_f33e03|0|0 133,0,0,0,0,0,0,0,0,0,0,0,0,0,0,133,
scooby_state_f33e2b|54|1 133,0,0,0,0,0,0,0,0,0,0,0,0,0,0,133,
scooby_state_1414b90|31|1 133,0,0,0,0,0,0,0,0,0,0,0,0,0,0,133,
scooby_state_f33e03|60|1 133,0,0,0,0,0,0,0,0,0,0,0,0,0,0,133,
scooby_state_1414b90|30|1 133,0,0,0,0,0,0,0,0,0,0,0,0,0,0,133,
scooby_state_1414b90|36|1 133,0,0,0,0,0,0,0,0,0,0,0,0,0,0,133,
scooby_state_1414b90|38|1 133,0,0,0,0,0,0,0,0,0,0,0,0,0,0,133,
scooby_state_9047ec|34|1 133,0,0,0,0,0,0,0,0,0,0,0,0,0,0,133,
scooby_state_1415400|16|1 133,0,0,0,0,0,0,0,0,0,0,0,0,0,0,133,
scooby_state_1414b90|17|1 133,0,0,0,0,0,0,0,0,0,0,0,0,0,0,133,
scooby_state_1414b90|11|1 133,0,0,0,0,0,0,0,0,0,0,0,0,0,0,133,
scooby_state_1415010|10|1 133,0,0,0,0,0,0,0,0,0,0,0,0,0,0,133,
scooby_state_8e7620|53|5 8,0,3,0,43,79,0,0,0,0,0,0,0,0,0,133,
scooby_state_90b50d|34|1 133,0,0,0,0,0,0,0,0,0,0,0,0,0,0,133,
scooby_state_1415010|37|1 133,0,0,0,0,0,0,0,0,0,0,0,0,0,0,133,
scooby_state_f33e03|41|1 133,0,0,0,0,0,0,0,0,0,0,0,0,0,0,133,
scooby_state_90b50d|10|1 132,1,0,0,0,0,0,0,0,0,0,0,0,0,0,133,
scooby_state_f33e03|45|1 132,0,0,0,0,0,0,0,0,0,0,1,0,0,0,133,
scooby_state_f335ab|13|1 133,0,0,0,0,0,0,0,0,0,0,0,0,0,0,133,
scooby_state_f335ab|31|1 133,0,0,0,0,0,0,0,0,0,0,0,0,0,0,133,
scooby_state_f335b5|35|1 133,0,0,0,0,0,0,0,0,0,0,0,0,0,0,133,
scooby_state_f335b5|8|1 133,0,0,0,0,0,0,0,0,0,0,0,0,0,0,133,
scooby_state_f33e03|42|1 133,0,0,0,0,0,0,0,0,0,0,0,0,0,0,133,
scooby_state_1415010|9|1 133,0,0,0,0,0,0,0,0,0,0,0,0,0,0,133,
scooby_state_9047ec|54|1 133,0,0,0,0,0,0,0,0,0,0,0,0,0,0,133,
scooby_state_f33e03|43|1 133,0,0,0,0,0,0,0,0,0,0,0,0,0,0,133,
scooby_state_9047ec|37|1 133,0,0,0,0,0,0,0,0,0,0,0,0,0,0,133,
scooby_state_f335b5|9|1 133,0,0,0,0,0,0,0,0,0,0,0,0,0,0,133,
scooby_state_1415410|0|0 131,0,0,0,0,1,0,0,0,0,0,0,0,0,0,132,
scooby_state_f335ab|4|1 131,0,0,0,0,0,0,0,0,1,0,0,0,0,0,132,
scooby_state_9047ec|28|1 132,0,0,0,0,0,0,0,0,0,0,0,0,0,0,132,
scooby_state_141543a|0|0 132,0,0,0,0,0,0,0,0,0,0,0,0,0,0,132,
scooby_state_1415410|1|1 132,0,0,0,0,0,0,0,0,0,0,0,0,0,0,132,
scooby_state_1415430|1|1 132,0,0,0,0,0,0,0,0,0,0,0,0,0,0,132,
scooby_state_141543a|1|1 131,0,0,0,1,0,0,0,0,0,0,0,0,0,0,132,
scooby_state_1415430|2|1 132,0,0,0,0,0,0,0,0,0,0,0,0,0,0,132,
scooby_state_90b50d|4|1 131,0,0,0,0,1,0,0,0,0,0,0,0,0,0,132,
scooby_state_141543a|2|1 132,0,0,0,0,0,0,0,0,0,0,0,0,0,0,132,
scooby_state_1415430|62|1 132,0,0,0,0,0,0,0,0,0,0,0,0,0,0,132,
scooby_state_1415400|0|0 132,0,0,0,0,0,0,0,0,0,0,0,0,0,0,132,
scooby_state_f335ab|6|1 132,0,0,0,0,0,0,0,0,0,0,0,0,0,0,132,
scooby_state_14108fa|16|1 131,0,0,0,0,0,0,0,0,0,0,0,1,0,0,132,
scooby_state_9047ec|32|1 131,0,0,0,0,0,0,0,0,0,0,0,1,0,0,132,
scooby_state_1415430|58|1 131,0,0,0,0,0,0,0,0,0,1,0,0,0,0,132,
scooby_state_9047ec|63|1 132,0,0,0,0,0,0,0,0,0,0,0,0,0,0,132,
scooby_state_1415400|2|1 132,0,0,0,0,0,0,0,0,0,0,0,0,0,0,132,
scooby_state_1415410|42|1 132,0,0,0,0,0,0,0,0,0,0,0,0,0,0,132,
scooby_state_f335ab|37|1 132,0,0,0,0,0,0,0,0,0,0,0,0,0,0,132,
scooby_state_9047ec|50|1 131,0,0,0,0,0,0,0,0,0,0,1,0,0,0,132,
scooby_state_f335b5|42|1 131,0,0,0,0,0,0,0,0,0,0,1,0,0,0,132,
scooby_state_1415400|58|1 131,0,0,0,0,0,0,1,0,0,0,0,0,0,0,132,
scooby_state_90b50d|3|1 131,0,0,0,0,0,0,0,1,0,0,0,0,0,0,132,
scooby_state_1415410|58|1 131,1,0,0,0,0,0,0,0,0,0,0,0,0,0,132,
scooby_state_f33e03|11|1 131,1,0,0,0,0,0,0,0,0,0,0,0,0,0,132,
scooby_state_f33e2b|13|1 132,0,0,0,0,0,0,0,0,0,0,0,0,0,0,132,
scooby_state_1415410|63|1 132,0,0,0,0,0,0,0,0,0,0,0,0,0,0,132,
scooby_state_141543a|58|1 132,0,0,0,0,0,0,0,0,0,0,0,0,0,0,132,
scooby_state_1415430|59|1 132,0,0,0,0,0,0,0,0,0,0,0,0,0,0,132,
scooby_state_141543a|59|1 132,0,0,0,0,0,0,0,0,0,0,0,0,0,0,132,
scooby_state_141543a|60|1 132,0,0,0,0,0,0,0,0,0,0,0,0,0,0,132,
scooby_state_1415410|61|1 132,0,0,0,0,0,0,0,0,0,0,0,0,0,0,132,
scooby_state_1415430|61|1 132,0,0,0,0,0,0,0,0,0,0,0,0,0,0,132,
scooby_state_141543a|61|1 131,0,0,0,0,0,0,0,0,0,0,0,0,0,1,132,
scooby_state_f33e03|57|1 132,0,0,0,0,0,0,0,0,0,0,0,0,0,0,132,
scooby_state_141543a|62|1 132,0,0,0,0,0,0,0,0,0,0,0,0,0,0,132,
scooby_state_9047ec|2|1 132,0,0,0,0,0,0,0,0,0,0,0,0,0,0,132,
scooby_state_f33e2b|50|1 132,0,0,0,0,0,0,0,0,0,0,0,0,0,0,132,
scooby_state_f335ab|11|1 132,0,0,0,0,0,0,0,0,0,0,0,0,0,0,132,
scooby_state_9047ec|59|1 132,0,0,0,0,0,0,0,0,0,0,0,0,0,0,132,
scooby_state_f33e2b|44|1 132,0,0,0,0,0,0,0,0,0,0,0,0,0,0,132,
scooby_state_904763|4|1 132,0,0,0,0,0,0,0,0,0,0,0,0,0,0,132,
scooby_state_141543a|41|1 132,0,0,0,0,0,0,0,0,0,0,0,0,0,0,132,
scooby_state_90b50d|14|1 132,0,0,0,0,0,0,0,0,0,0,0,0,0,0,132,
scooby_state_90b50d|62|1 132,0,0,0,0,0,0,0,0,0,0,0,0,0,0,132,
scooby_state_1415410|41|1 131,0,0,1,0,0,0,0,0,0,0,0,0,0,0,132,
scooby_state_f33e13|31|1 132,0,0,0,0,0,0,0,0,0,0,0,0,0,0,132,
scooby_state_f335b5|62|1 132,0,0,0,0,0,0,0,0,0,0,0,0,0,0,132,
scooby_state_f33e03|53|1 132,0,0,0,0,0,0,0,0,0,0,0,0,0,0,132,
scooby_state_f33e13|60|1 132,0,0,0,0,0,0,0,0,0,0,0,0,0,0,132,
scooby_state_904763|48|1 131,0,0,0,1,0,0,0,0,0,0,0,0,0,0,132,
scooby_state_904763|60|1 132,0,0,0,0,0,0,0,0,0,0,0,0,0,0,132,
scooby_state_1415010|19|1 132,0,0,0,0,0,0,0,0,0,0,0,0,0,0,132,
scooby_state_f335b5|32|1 132,0,0,0,0,0,0,0,0,0,0,0,0,0,0,132,
scooby_state_f33e03|5|1 132,0,0,0,0,0,0,0,0,0,0,0,0,0,0,132,
scooby_state_90b50d|42|1 132,0,0,0,0,0,0,0,0,0,0,0,0,0,0,132,
scooby_state_f335b5|2|1 132,0,0,0,0,0,0,0,0,0,0,0,0,0,0,132,
scooby_state_f33e03|26|1 132,0,0,0,0,0,0,0,0,0,0,0,0,0,0,132,
scooby_state_f33e2b|58|1 132,0,0,0,0,0,0,0,0,0,0,0,0,0,0,132,
scooby_state_f33e2b|3|1 132,0,0,0,0,0,0,0,0,0,0,0,0,0,0,132,
scooby_state_f33e03|13|1 132,0,0,0,0,0,0,0,0,0,0,0,0,0,0,132,
scooby_state_1415400|15|1 131,0,0,0,0,0,0,0,0,0,1,0,0,0,0,132,
scooby_state_1415410|15|1 132,0,0,0,0,0,0,0,0,0,0,0,0,0,0,132,
scooby_state_9047ec|17|1 132,0,0,0,0,0,0,0,0,0,0,0,0,0,0,132,
scooby_state_9047ec|6|1 132,0,0,0,0,0,0,0,0,0,0,0,0,0,0,132,
scooby_state_1415430|15|1 132,0,0,0,0,0,0,0,0,0,0,0,0,0,0,132,
scooby_state_1415410|17|1 132,0,0,0,0,0,0,0,0,0,0,0,0,0,0,132,
scooby_state_141543a|17|1 131,0,0,0,0,0,1,0,0,0,0,0,0,0,0,132,
scooby_state_90b50d|44|1 131,0,0,0,1,0,0,0,0,0,0,0,0,0,0,132,
scooby_state_1415400|18|1 132,0,0,0,0,0,0,0,0,0,0,0,0,0,0,132,
scooby_state_f33e13|20|1 132,0,0,0,0,0,0,0,0,0,0,0,0,0,0,132,
scooby_state_141543a|18|1 132,0,0,0,0,0,0,0,0,0,0,0,0,0,0,132,
scooby_state_f33e2b|40|1 131,0,0,0,1,0,0,0,0,0,0,0,0,0,0,132,
scooby_state_141543a|43|1 132,0,0,0,0,0,0,0,0,0,0,0,0,0,0,132,
scooby_state_f335b5|60|1 132,0,0,0,0,0,0,0,0,0,0,0,0,0,0,132,
scooby_state_f33e2b|59|1 132,0,0,0,0,0,0,0,0,0,0,0,0,0,0,132,
scooby_state_9047ec|1|1 132,0,0,0,0,0,0,0,0,0,0,0,0,0,0,132,
scooby_state_904763|31|1 132,0,0,0,0,0,0,0,0,0,0,0,0,0,0,132,
scooby_state_f335b5|48|1 132,0,0,0,0,0,0,0,0,0,0,0,0,0,0,132,
scooby_state_f335ab|38|1 131,0,0,0,0,0,0,0,0,0,1,0,0,0,0,132,
scooby_state_1415010|38|1 132,0,0,0,0,0,0,0,0,0,0,0,0,0,0,132,
scooby_state_f335b5|6|1 132,0,0,0,0,0,0,0,0,0,0,0,0,0,0,132,
scooby_state_1415010|45|1 132,0,0,0,0,0,0,0,0,0,0,0,0,0,0,132,
scooby_state_f335b5|5|1 132,0,0,0,0,0,0,0,0,0,0,0,0,0,0,132,
scooby_state_f335b5|14|1 131,1,0,0,0,0,0,0,0,0,0,0,0,0,0,132,
scooby_state_f335b5|13|1 132,0,0,0,0,0,0,0,0,0,0,0,0,0,0,132,
scooby_state_f335b5|27|1 131,0,0,0,1,0,0,0,0,0,0,0,0,0,0,132,
scooby_state_1415430|16|1 131,0,0,0,0,0,0,0,0,0,1,0,0,0,0,132,
scooby_state_1414b90|43|1 131,0,0,1,0,0,0,0,0,0,0,0,0,0,0,132,
scooby_state_f33e2b|17|1 132,0,0,0,0,0,0,0,0,0,0,0,0,0,0,132,
scooby_state_f33e2b|51|1 132,0,0,0,0,0,0,0,0,0,0,0,0,0,0,132,
scooby_state_f33e13|18|1 132,0,0,0,0,0,0,0,0,0,0,0,0,0,0,132,
scooby_state_1415010|35|1 132,0,0,0,0,0,0,0,0,0,0,0,0,0,0,132,
scooby_state_f335ab|29|1 132,0,0,0,0,0,0,0,0,0,0,0,0,0,0,132,
scooby_state_1415430|40|1 132,0,0,0,0,0,0,0,0,0,0,0,0,0,0,132,
scooby_state_f33e03|33|1 132,0,0,0,0,0,0,0,0,0,0,0,0,0,0,132,
scooby_state_9047ec|30|1 132,0,0,0,0,0,0,0,0,0,0,0,0,0,0,132,
scooby_state_904763|30|1 132,0,0,0,0,0,0,0,0,0,0,0,0,0,0,132,
scooby_state_f33e2b|14|1 132,0,0,0,0,0,0,0,0,0,0,0,0,0,0,132,
scooby_state_f33e13|8|1 131,0,0,0,0,0,0,0,0,0,0,1,0,0,0,132,
scooby_state_1415010|56|1 132,0,0,0,0,0,0,0,0,0,0,0,0,0,0,132,
scooby_state_1415430|60|1 132,0,0,0,0,0,0,0,0,0,0,0,0,0,0,132,
scooby_state_1415010|62|1 132,0,0,0,0,0,0,0,0,0,0,0,0,0,0,132,
scooby_state_1415410|43|1 131,0,0,1,0,0,0,0,0,0,0,0,0,0,0,132,
scooby_state_f335ab|23|1 131,0,0,0,0,0,0,0,1,0,0,0,0,0,0,132,
scooby_state_904763|50|1 132,0,0,0,0,0,0,0,0,0,0,0,0,0,0,132,
scooby_state_f33e2b|26|1 132,0,0,0,0,0,0,0,0,0,0,0,0,0,0,132,
scooby_state_f33e2b|2|1 132,0,0,0,0,0,0,0,0,0,0,0,0,0,0,132,
scooby_state_f33e2b|28|1 132,0,0,0,0,0,0,0,0,0,0,0,0,0,0,132,
scooby_state_f335b5|3|1 131,0,0,0,0,0,1,0,0,0,0,0,0,0,0,132,
scooby_state_9047ec|27|1 132,0,0,0,0,0,0,0,0,0,0,0,0,0,0,132,
scooby_state_1415010|11|1 132,0,0,0,0,0,0,0,0,0,0,0,0,0,0,132,
scooby_state_904763|43|1 132,0,0,0,0,0,0,0,0,0,0,0,0,0,0,132,
scooby_state_1414b90|62|1 132,0,0,0,0,0,0,0,0,0,0,0,0,0,0,132,
scooby_state_90b50d|29|1 131,0,0,0,0,0,0,1,0,0,0,0,0,0,0,132,
scooby_state_f33e03|50|1 132,0,0,0,0,0,0,0,0,0,0,0,0,0,0,132,
scooby_state_1414b90|15|1 132,0,0,0,0,0,0,0,0,0,0,0,0,0,0,132,
scooby_state_1414b90|19|1 132,0,0,0,0,0,0,0,0,0,0,0,0,0,0,132,
scooby_state_904763|15|1 132,0,0,0,0,0,0,0,0,0,0,0,0,0,0,132,
scooby_state_f335ab|30|1 131,0,0,0,1,0,0,0,0,0,0,0,0,0,0,132,
scooby_state_f33e2b|32|1 132,0,0,0,0,0,0,0,0,0,0,0,0,0,0,132,
scooby_state_f33e03|48|1 132,0,0,0,0,0,0,0,0,0,0,0,0,0,0,132,
scooby_state_90b50d|61|1 132,0,0,0,0,0,0,0,0,0,0,0,0,0,0,132,
scooby_state_f33e03|12|1 132,0,0,0,0,0,0,0,0,0,0,0,0,0,0,132,
scooby_state_90b50d|17|1 132,0,0,0,0,0,0,0,0,0,0,0,0,0,0,132,
scooby_state_f335ab|19|1 132,0,0,0,0,0,0,0,0,0,0,0,0,0,0,132,
scooby_state_f335b5|26|1 132,0,0,0,0,0,0,0,0,0,0,0,0,0,0,132,
scooby_state_f33e2b|46|1 132,0,0,0,0,0,0,0,0,0,0,0,0,0,0,132,
scooby_state_904763|58|1 132,0,0,0,0,0,0,0,0,0,0,0,0,0,0,132,
scooby_state_1414b90|60|1 132,0,0,0,0,0,0,0,0,0,0,0,0,0,0,132,
scooby_state_1414b90|54|1 132,0,0,0,0,0,0,0,0,0,0,0,0,0,0,132,
scooby_state_f33e13|17|1 132,0,0,0,0,0,0,0,0,0,0,0,0,0,0,132,
scooby_state_f33e03|51|1 131,0,0,0,0,0,0,0,0,0,0,1,0,0,0,132,
scooby_state_f335ab|53|1 132,0,0,0,0,0,0,0,0,0,0,0,0,0,0,132,
scooby_state_f33e2b|6|1 132,0,0,0,0,0,0,0,0,0,0,0,0,0,0,132,
scooby_state_904763|62|1 132,0,0,0,0,0,0,0,0,0,0,0,0,0,0,132,
scooby_state_f335b5|28|1 132,0,0,0,0,0,0,0,0,0,0,0,0,0,0,132,
scooby_state_14108fa|21|1 131,0,0,0,0,0,1,0,0,0,0,0,0,0,0,132,
scooby_state_f335b5|19|1 132,0,0,0,0,0,0,0,0,0,0,0,0,0,0,132,
scooby_state_f335ab|54|1 131,0,0,0,0,0,0,0,0,1,0,0,0,0,0,132,
scooby_state_f335ab|40|1 132,0,0,0,0,0,0,0,0,0,0,0,0,0,0,132,
scooby_state_f335ab|39|1 132,0,0,0,0,0,0,0,0,0,0,0,0,0,0,132,
scooby_state_9047ec|45|1 132,0,0,0,0,0,0,0,0,0,0,0,0,0,0,132,
scooby_state_141543a|38|1 132,0,0,0,0,0,0,0,0,0,0,0,0,0,0,132,
scooby_state_1414b90|9|1 131,0,0,0,0,0,0,1,0,0,0,0,0,0,0,132,
scooby_state_f335b5|40|1 132,0,0,0,0,0,0,0,0,0,0,0,0,0,0,132,
scooby_state_9047ec|14|1 132,0,0,0,0,0,0,0,0,0,0,0,0,0,0,132,
scooby_state_f33e03|9|1 132,0,0,0,0,0,0,0,0,0,0,0,0,0,0,132,
scooby_state_9047ec|18|1 132,0,0,0,0,0,0,0,0,0,0,0,0,0,0,132,
scooby_state_90b50d|48|1 132,0,0,0,0,0,0,0,0,0,0,0,0,0,0,132,
scooby_state_f335ab|10|1 132,0,0,0,0,0,0,0,0,0,0,0,0,0,0,132,
scooby_state_f335ab|56|1 132,0,0,0,0,0,0,0,0,0,0,0,0,0,0,132,
scooby_state_9047ec|16|1 132,0,0,0,0,0,0,0,0,0,0,0,0,0,0,132,
scooby_state_14108fa|43|1 131,0,0,0,0,0,1,0,0,0,0,0,0,0,0,132,
scooby_state_1415400|37|1 132,0,0,0,0,0,0,0,0,0,0,0,0,0,0,132,
scooby_state_1415430|37|1 131,0,0,0,0,0,0,0,0,0,0,0,1,0,0,132,
scooby_state_f33e13|53|1 132,0,0,0,0,0,0,0,0,0,0,0,0,0,0,132,
scooby_state_141543a|37|1 131,0,0,0,0,0,1,0,0,0,0,0,0,0,0,132,
scooby_state_f335b5|39|1 132,0,0,0,0,0,0,0,0,0,0,0,0,0,0,132,
scooby_state_1415410|39|1 132,0,0,0,0,0,0,0,0,0,0,0,0,0,0,132,
scooby_state_1415400|40|1 132,0,0,0,0,0,0,0,0,0,0,0,0,0,0,132,
scooby_state_9047ec|15|1 132,0,0,0,0,0,0,0,0,0,0,0,0,0,0,132,
scooby_state_141543a|40|1 132,0,0,0,0,0,0,0,0,0,0,0,0,0,0,132,
scooby_state_1415430|41|1 132,0,0,0,0,0,0,0,0,0,0,0,0,0,0,132,
scooby_state_1415400|42|1 132,0,0,0,0,0,0,0,0,0,0,0,0,0,0,132,
scooby_state_141543a|42|1 132,0,0,0,0,0,0,0,0,0,0,0,0,0,0,132,
scooby_state_1415410|44|1 132,0,0,0,0,0,0,0,0,0,0,0,0,0,0,132,
scooby_state_f335b5|46|1 132,0,0,0,0,0,0,0,0,0,0,0,0,0,0,132,
scooby_state_141543a|44|1 131,0,1,0,0,0,0,0,0,0,0,0,0,0,0,132,
scooby_state_1415400|45|1 131,0,0,0,0,0,0,0,0,0,0,0,0,1,0,132,
scooby_state_1415410|45|1 132,0,0,0,0,0,0,0,0,0,0,0,0,0,0,132,
scooby_state_f33e2b|5|1 132,0,0,0,0,0,0,0,0,0,0,0,0,0,0,132,
scooby_state_1415400|38|1 131,0,0,0,0,0,0,0,0,0,1,0,0,0,0,132,
scooby_state_90b50d|26|1 132,0,0,0,0,0,0,0,0,0,0,0,0,0,0,132,
scooby_state_904763|39|1 131,0,0,1,0,0,0,0,0,0,0,0,0,0,0,132,
scooby_state_904763|2|1 132,0,0,0,0,0,0,0,0,0,0,0,0,0,0,132,
scooby_state_904763|28|1 131,0,0,0,0,0,0,0,0,0,0,1,0,0,0,132,
scooby_state_1415010|26|1 132,0,0,0,0,0,0,0,0,0,0,0,0,0,0,132,
scooby_state_1415430|42|1 132,0,0,0,0,0,0,0,0,0,0,0,0,0,0,132,
scooby_state_904763|18|1 131,0,0,0,1,0,0,0,0,0,0,0,0,0,0,132,
scooby_state_904763|63|1 132,0,0,0,0,0,0,0,0,0,0,0,0,0,0,132,
scooby_state_f335ab|24|1 132,0,0,0,0,0,0,0,0,0,0,0,0,0,0,132,
scooby_state_f33e13|42|1 130,0,0,1,0,0,0,1,0,0,0,0,0,0,0,132,
scooby_state_90b50d|58|1 132,0,0,0,0,0,0,0,0,0,0,0,0,0,0,132,
scooby_state_1415410|40|1 132,0,0,0,0,0,0,0,0,0,0,0,0,0,0,132,
scooby_state_f335ab|22|1 132,0,0,0,0,0,0,0,0,0,0,0,0,0,0,132,
scooby_state_f335b5|61|1 132,0,0,0,0,0,0,0,0,0,0,0,0,0,0,132,
scooby_state_f335ab|20|1 132,0,0,0,0,0,0,0,0,0,0,0,0,0,0,132,
scooby_state_9047ec|13|1 132,0,0,0,0,0,0,0,0,0,0,0,0,0,0,132,
scooby_state_1415430|43|1 132,0,0,0,0,0,0,0,0,0,0,0,0,0,0,132,
scooby_state_f335b5|58|1 132,0,0,0,0,0,0,0,0,0,0,0,0,0,0,132,
scooby_state_1415010|47|1 132,0,0,0,0,0,0,0,0,0,0,0,0,0,0,132,
scooby_state_f33e13|32|1 131,0,0,0,0,1,0,0,0,0,0,0,0,0,0,132,
scooby_state_f335b5|51|1 132,0,0,0,0,0,0,0,0,0,0,0,0,0,0,132,
scooby_state_f335ab|9|1 132,0,0,0,0,0,0,0,0,0,0,0,0,0,0,132,
scooby_state_f335ab|8|1 132,0,0,0,0,0,0,0,0,0,0,0,0,0,0,132,
scooby_state_f335ab|7|1 132,0,0,0,0,0,0,0,0,0,0,0,0,0,0,132,
scooby_state_f335b5|44|1 132,0,0,0,0,0,0,0,0,0,0,0,0,0,0,132,
scooby_state_f335ab|2|1 132,0,0,0,0,0,0,0,0,0,0,0,0,0,0,132,
scooby_state_9047ec|39|1 132,0,0,0,0,0,0,0,0,0,0,0,0,0,0,132,
scooby_state_f335ab|1|1 132,0,0,0,0,0,0,0,0,0,0,0,0,0,0,132,
scooby_state_904763|19|1 132,0,0,0,0,0,0,0,0,0,0,0,0,0,0,132,
scooby_state_1415010|63|1 132,0,0,0,0,0,0,0,0,0,0,0,0,0,0,132,
scooby_state_90b50d|15|1 132,0,0,0,0,0,0,0,0,0,0,0,0,0,0,132,
scooby_state_9047ec|5|1 132,0,0,0,0,0,0,0,0,0,0,0,0,0,0,132,
scooby_state_f33e2b|41|1 131,0,0,0,0,0,0,0,0,0,0,0,1,0,0,132,
scooby_state_f335ab|63|1 131,0,0,0,0,0,0,0,0,0,0,0,1,0,0,132,
scooby_state_f33e2b|31|1 132,0,0,0,0,0,0,0,0,0,0,0,0,0,0,132,
scooby_state_f335ab|51|1 132,0,0,0,0,0,0,0,0,0,0,0,0,0,0,132,
scooby_state_1415410|62|1 131,0,0,0,0,0,0,0,0,1,0,0,0,0,0,132,
scooby_state_f33e13|52|1 132,0,0,0,0,0,0,0,0,0,0,0,0,0,0,132,
scooby_state_f33e2b|19|1 132,0,0,0,0,0,0,0,0,0,0,0,0,0,0,132,
scooby_state_90b50d|50|1 132,0,0,0,0,0,0,0,0,0,0,0,0,0,0,132,
scooby_state_f33e2b|60|1 132,0,0,0,0,0,0,0,0,0,0,0,0,0,0,132,
scooby_state_1415410|60|1 132,0,0,0,0,0,0,0,0,0,0,0,0,0,0,132,
scooby_state_1415430|18|1 132,0,0,0,0,0,0,0,0,0,0,0,0,0,0,132,
scooby_state_f335ab|41|1 132,0,0,0,0,0,0,0,0,0,0,0,0,0,0,132,
scooby_state_1415430|17|1 132,0,0,0,0,0,0,0,0,0,0,0,0,0,0,132,
scooby_state_f33e2b|43|1 132,0,0,0,0,0,0,0,0,0,0,0,0,0,0,132,
scooby_state_90b50d|30|1 132,0,0,0,0,0,0,0,0,0,0,0,0,0,0,132,
scooby_state_90b50d|28|1 132,0,0,0,0,0,0,0,0,0,0,0,0,0,0,132,
scooby_state_90b50d|45|1 132,0,0,0,0,0,0,0,0,0,0,0,0,0,0,132,
scooby_state_904763|29|1 131,0,0,0,0,0,0,0,0,0,0,0,0,1,0,132,
scooby_state_9047ec|60|1 132,0,0,0,0,0,0,0,0,0,0,0,0,0,0,132,
scooby_state_f33e13|2|1 132,0,0,0,0,0,0,0,0,0,0,0,0,0,0,132,
scooby_state_1415430|0|0 132,0,0,0,0,0,0,0,0,0,0,0,0,0,0,132,
scooby_state_1415410|59|1 132,0,0,0,0,0,0,0,0,0,0,0,0,0,0,132,
scooby_state_f335b5|18|1 130,0,0,0,0,1,0,0,0,0,0,1,0,0,0,132,
scooby_state_90b50d|51|1 132,0,0,0,0,0,0,0,0,0,0,0,0,0,0,132,
scooby_state_141543a|15|1 132,0,0,0,0,0,0,0,0,0,0,0,0,0,0,132,
scooby_state_f33e13|30|1 131,0,0,0,0,0,1,0,0,0,0,0,0,0,0,132,
scooby_state_f335ab|26|1 132,0,0,0,0,0,0,0,0,0,0,0,0,0,0,132,
scooby_state_1415400|60|1 132,0,0,0,0,0,0,0,0,0,0,0,0,0,0,132,
scooby_state_f335b5|47|1 132,0,0,0,0,0,0,0,0,0,0,0,0,0,0,132,
scooby_state_f33e03|8|1 131,0,0,0,1,0,0,0,0,0,0,0,0,0,0,132,
scooby_state_9047ec|62|1 131,0,0,0,0,0,0,0,1,0,0,0,0,0,0,132,
scooby_state_1415010|36|1 132,0,0,0,0,0,0,0,0,0,0,0,0,0,0,132,
scooby_state_f33e03|39|1 131,0,0,0,0,1,0,0,0,0,0,0,0,0,0,132,
scooby_state_f33e03|22|1 132,0,0,0,0,0,0,0,0,0,0,0,0,0,0,132,
scooby_state_904763|41|1 132,0,0,0,0,0,0,0,0,0,0,0,0,0,0,132,
scooby_state_904763|13|1 132,0,0,0,0,0,0,0,0,0,0,0,0,0,0,132,
scooby_state_141543a|16|1 132,0,0,0,0,0,0,0,0,0,0,0,0,0,0,132,
scooby_state_f33e13|16|1 132,0,0,0,0,0,0,0,0,0,0,0,0,0,0,132,
scooby_state_1414b90|18|1 132,0,0,0,0,0,0,0,0,0,0,0,0,0,0,132,
scooby_state_9047ec|43|1 132,0,0,0,0,0,0,0,0,0,0,0,0,0,0,132,
scooby_state_1415400|44|1 132,0,0,0,0,0,0,0,0,0,0,0,0,0,0,132,
scooby_state_f335b5|49|1 131,0,0,0,0,0,0,0,0,0,1,0,0,0,0,132,
scooby_state_f33e03|24|1 132,0,0,0,0,0,0,0,0,0,0,0,0,0,0,132,
scooby_state_f33e13|50|1 132,0,0,0,0,0,0,0,0,0,0,0,0,0,0,132,
scooby_state_f335b5|15|1 132,0,0,0,0,0,0,0,0,0,0,0,0,0,0,132,
scooby_state_f33e13|46|1 132,0,0,0,0,0,0,0,0,0,0,0,0,0,0,132,
scooby_state_f33e03|49|1 132,0,0,0,0,0,0,0,0,0,0,0,0,0,0,132,
scooby_state_f33e2b|4|1 132,0,0,0,0,0,0,0,0,0,0,0,0,0,0,132,
scooby_state_90b50d|2|1 131,0,0,0,0,0,0,0,0,0,0,0,0,1,0,132,
scooby_state_90b50d|59|1 131,0,0,0,1,0,0,0,0,0,0,0,0,0,0,132,
scooby_state_904763|59|1 132,0,0,0,0,0,0,0,0,0,0,0,0,0,0,132,
scooby_state_f33e03|20|1 131,1,0,0,0,0,0,0,0,0,0,0,0,0,0,132,
scooby_state_141543a|45|1 132,0,0,0,0,0,0,0,0,0,0,0,0,0,0,132,
scooby_state_90b50d|13|1 132,0,0,0,0,0,0,0,0,0,0,0,0,0,0,132,
scooby_state_f33e2b|47|1 132,0,0,0,0,0,0,0,0,0,0,0,0,0,0,132,
scooby_state_90b50d|16|1 132,0,0,0,0,0,0,0,0,0,0,0,0,0,0,132,
scooby_state_904763|17|1 132,0,0,0,0,0,0,0,0,0,0,0,0,0,0,132,
scooby_state_1414b90|23|1 132,0,0,0,0,0,0,0,0,0,0,0,0,0,0,132,
scooby_state_904763|5|1 132,0,0,0,0,0,0,0,0,0,0,0,0,0,0,132,
scooby_state_f33e2b|49|1 132,0,0,0,0,0,0,0,0,0,0,0,0,0,0,132,
scooby_state_f33e03|55|1 131,0,0,0,0,0,0,0,1,0,0,0,0,0,0,132,
scooby_state_90b50d|31|1 132,0,0,0,0,0,0,0,0,0,0,0,0,0,0,132,
scooby_state_f335b5|17|1 132,0,0,0,0,0,0,0,0,0,0,0,0,0,0,132,
scooby_state_904763|6|1 132,0,0,0,0,0,0,0,0,0,0,0,0,0,0,132,
scooby_state_f33e03|1|1 132,0,0,0,0,0,0,0,0,0,0,0,0,0,0,132,
scooby_state_f33e13|4|1 132,0,0,0,0,0,0,0,0,0,0,0,0,0,0,132,
scooby_state_f33e13|5|1 132,0,0,0,0,0,0,0,0,0,0,0,0,0,0,132,
scooby_state_1415430|45|1 132,0,0,0,0,0,0,0,0,0,0,0,0,0,0,132,
scooby_state_1415430|44|1 131,0,0,0,0,0,0,1,0,0,0,0,0,0,0,132,
scooby_state_f335ab|25|1 132,0,0,0,0,0,0,0,0,0,0,0,0,0,0,132,
scooby_state_f335b5|50|1 132,0,0,0,0,0,0,0,0,0,0,0,0,0,0,132,
scooby_state_f33e13|7|1 132,0,0,0,0,0,0,0,0,0,0,0,0,0,0,132,
scooby_state_f33e2b|15|1 132,0,0,0,0,0,0,0,0,0,0,0,0,0,0,132,
scooby_state_f33e13|19|1 130,0,0,0,0,1,0,1,0,0,0,0,0,0,0,132,
scooby_state_f33e2b|18|1 132,0,0,0,0,0,0,0,0,0,0,0,0,0,0,132,
scooby_state_9047ec|26|1 132,0,0,0,0,0,0,0,0,0,0,0,0,0,0,132,
scooby_state_f33e03|25|1 132,0,0,0,0,0,0,0,0,0,0,0,0,0,0,132,
scooby_state_f33e13|21|1 132,0,0,0,0,0,0,0,0,0,0,0,0,0,0,132,
scooby_state_1415410|37|1 132,0,0,0,0,0,0,0,0,0,0,0,0,0,0,132,
scooby_state_f33e03|54|1 132,0,0,0,0,0,0,0,0,0,0,0,0,0,0,132,
[...]
scooby_state_f33e2b|3|0 1,0,0,0,0,0,0,0,0,0,0,0,0,0,0,1,
scooby_state_905f24|30|11 1,0,0,0,0,0,0,0,0,0,0,0,0,0,0,1,
scooby_state_1406f59|17|0 1,0,0,0,0,0,0,0,0,0,0,0,0,0,0,1,
scooby_state_90bf1f|9|6 1,0,0,0,0,0,0,0,0,0,0,0,0,0,0,1,
scooby_state_f33e03|10|6 1,0,0,0,0,0,0,0,0,0,0,0,0,0,0,1,
scooby_state_905c81|50|1 1,0,0,0,0,0,0,0,0,0,0,0,0,0,0,1,
scooby_state_14100e0|37|17 1,0,0,0,0,0,0,0,0,0,0,0,0,0,0,1,
scooby_state_90bf78|60|6 1,0,0,0,0,0,0,0,0,0,0,0,0,0,0,1,
scooby_state_1409750|35|-5 1,0,0,0,0,0,0,0,0,0,0,0,0,0,0,1,
scooby_state_f33e13|33|0 1,0,0,0,0,0,0,0,0,0,0,0,0,0,0,1,
scooby_state_1407771|20|-6 1,0,0,0,0,0,0,0,0,0,0,0,0,0,0,1,
scooby_state_f33e09|17|0 1,0,0,0,0,0,0,0,0,0,0,0,0,0,0,1,
scooby_state_8e09f9|52|5 1,0,0,0,0,0,0,0,0,0,0,0,0,0,0,1,
scooby_state_905f61|17|0 1,0,0,0,0,0,0,0,0,0,0,0,0,0,0,1,
scooby_state_14084b4|52|1 1,0,0,0,0,0,0,0,0,0,0,0,0,0,0,1,
scooby_state_90bf09|35|6 1,0,0,0,0,0,0,0,0,0,0,0,0,0,0,1,
scooby_state_8e0a03|40|1 1,0,0,0,0,0,0,0,0,0,0,0,0,0,0,1,
scooby_state_91a0c4|50|11 1,0,0,0,0,0,0,0,0,0,0,0,0,0,0,1,
scooby_state_f33e41|57|1 1,0,0,0,0,0,0,0,0,0,0,0,0,0,0,1,
scooby_state_f33e03|62|6 1,0,0,0,0,0,0,0,0,0,0,0,0,0,0,1,
scooby_state_90c8d4|22|5 1,0,0,0,0,0,0,0,0,0,0,0,0,0,0,1,
scooby_state_905f9c|59|11 1,0,0,0,0,0,0,0,0,0,0,0,0,0,0,1,
scooby_state_141025f|0|-49 1,0,0,0,0,0,0,0,0,0,0,0,0,0,0,1,
scooby_state_916113|30|11 1,0,0,0,0,0,0,0,0,0,0,0,0,0,0,1,
scooby_state_140f3c0|15|1 1,0,0,0,0,0,0,0,0,0,0,0,0,0,0,1,
scooby_state_1407b5e|8|6 1,0,0,0,0,0,0,0,0,0,0,0,0,0,0,1,
scooby_state_f33caa|48|-1 1,0,0,0,0,0,0,0,0,0,0,0,0,0,0,1,
scooby_state_1408170|24|6 1,0,0,0,0,0,0,0,0,0,0,0,0,0,0,1,
scooby_state_140ead7|5|-58 1,0,0,0,0,0,0,0,0,0,0,0,0,0,0,1,
scooby_state_140f325|20|6 1,0,0,0,0,0,0,0,0,0,0,0,0,0,0,1,
scooby_state_140aa8e|10|6 1,0,0,0,0,0,0,0,0,0,0,0,0,0,0,1,
scooby_state_1406bf0|24|3 1,0,0,0,0,0,0,0,0,0,0,0,0,0,0,1,
scooby_state_1408604|24|1 1,0,0,0,0,0,0,0,0,0,0,0,0,0,0,1,
scooby_state_8e2ac1|43|1 1,0,0,0,0,0,0,0,0,0,0,0,0,0,0,1,
scooby_state_140eef5|49|6 1,0,0,0,0,0,0,0,0,0,0,0,0,0,0,1,
scooby_state_15d6534|28|18 1,0,0,0,0,0,0,0,0,0,0,0,0,0,0,1,
scooby_state_903bbc|28|5 1,0,0,0,0,0,0,0,0,0,0,0,0,0,0,1,
scooby_state_91a81d|14|6 1,0,0,0,0,0,0,0,0,0,0,0,0,0,0,1,
scooby_state_1409543|21|1 1,0,0,0,0,0,0,0,0,0,0,0,0,0,0,1,
scooby_state_1406bf3|23|1 1,0,0,0,0,0,0,0,0,0,0,0,0,0,0,1,
scooby_state_140e29d|16|0 1,0,0,0,0,0,0,0,0,0,0,0,0,0,0,1,
scooby_state_140a610|41|11 1,0,0,0,0,0,0,0,0,0,0,0,0,0,0,1,
scooby_state_140d009|46|2 1,0,0,0,0,0,0,0,0,0,0,0,0,0,0,1,
scooby_state_140aabc|27|3 1,0,0,0,0,0,0,0,0,0,0,0,0,0,0,1,
scooby_state_1407725|39|-5 1,0,0,0,0,0,0,0,0,0,0,0,0,0,0,1,
scooby_state_91a801|42|1 1,0,0,0,0,0,0,0,0,0,0,0,0,0,0,1,
scooby_state_14ff603|24|1 1,0,0,0,0,0,0,0,0,0,0,0,0,0,0,1,
scooby_state_905619|20|6 1,0,0,0,0,0,0,0,0,0,0,0,0,0,0,1,
scooby_state_905eea|21|5 1,0,0,0,0,0,0,0,0,0,0,0,0,0,0,1,
scooby_state_140c614|1|-62 1,0,0,0,0,0,0,0,0,0,0,0,0,0,0,1,
scooby_state_140bec9|15|6 1,0,0,0,0,0,0,0,0,0,0,0,0,0,0,1,
scooby_state_1409487|13|6 1,0,0,0,0,0,0,0,0,0,0,0,0,0,0,1,
scooby_state_14ffb9d|4|-39 1,0,0,0,0,0,0,0,0,0,0,0,0,0,0,1,
scooby_state_140c2d6|50|0 1,0,0,0,0,0,0,0,0,0,0,0,0,0,0,1,
scooby_state_91a0a0|26|6 1,0,0,0,0,0,0,0,0,0,0,0,0,0,0,1,
scooby_state_140777e|8|1 1,0,0,0,0,0,0,0,0,0,0,0,0,0,0,1,
scooby_state_90c952|51|6 1,0,0,0,0,0,0,0,0,0,0,0,0,0,0,1,
scooby_state_8e081a|19|6 1,0,0,0,0,0,0,0,0,0,0,0,0,0,0,1,
scooby_state_90c901|0|-5 1,0,0,0,0,0,0,0,0,0,0,0,0,0,0,1,
scooby_state_90c14e|43|1 1,0,0,0,0,0,0,0,0,0,0,0,0,0,0,1,
scooby_state_90bfbf|41|5 1,0,0,0,0,0,0,0,0,0,0,0,0,0,0,1,
scooby_state_90cac0|13|1 1,0,0,0,0,0,0,0,0,0,0,0,0,0,0,1,
scooby_state_904690|26|1 1,0,0,0,0,0,0,0,0,0,0,0,0,0,0,1,
scooby_state_91a87b|35|-28 1,0,0,0,0,0,0,0,0,0,0,0,0,0,0,1,
scooby_state_1409fea|45|1 1,0,0,0,0,0,0,0,0,0,0,0,0,0,0,1,
scooby_state_1501ee0|52|12 1,0,0,0,0,0,0,0,0,0,0,0,0,0,0,1,
scooby_state_90359d|61|6 1,0,0,0,0,0,0,0,0,0,0,0,0,0,0,1,
scooby_state_140f429|36|14 1,0,0,0,0,0,0,0,0,0,0,0,0,0,0,1,
scooby_state_14064cf|46|0 1,0,0,0,0,0,0,0,0,0,0,0,0,0,0,1,
scooby_state_1414b90|9|6 1,0,0,0,0,0,0,0,0,0,0,0,0,0,0,1,
scooby_state_f335ab|28|6 1,0,0,0,0,0,0,0,0,0,0,0,0,0,0,1,
scooby_state_90b571|7|6 1,0,0,0,0,0,0,0,0,0,0,0,0,0,0,1,
scooby_state_916e60|0|-36 1,0,0,0,0,0,0,0,0,0,0,0,0,0,0,1,
scooby_state_1407769|32|-5 1,0,0,0,0,0,0,0,0,0,0,0,0,0,0,1,
scooby_state_1407e00|5|1 1,0,0,0,0,0,0,0,0,0,0,0,0,0,0,1,
scooby_state_8e05c0|7|1 1,0,0,0,0,0,0,0,0,0,0,0,0,0,0,1,
scooby_state_140e169|24|-1 1,0,0,0,0,0,0,0,0,0,0,0,0,0,0,1,
scooby_state_14100e0|46|17 1,0,0,0,0,0,0,0,0,0,0,0,0,0,0,1,
scooby_state_90bfc7|9|1 1,0,0,0,0,0,0,0,0,0,0,0,0,0,0,1,
scooby_state_90bf33|36|6 1,0,0,0,0,0,0,0,0,0,0,0,0,0,0,1,
scooby_state_140eef0|19|6 1,0,0,0,0,0,0,0,0,0,0,0,0,0,0,1,
scooby_state_905619|60|6 1,0,0,0,0,0,0,0,0,0,0,0,0,0,0,1,
scooby_state_140e659|56|6 1,0,0,0,0,0,0,0,0,0,0,0,0,0,0,1,
scooby_state_1409c45|54|-2 1,0,0,0,0,0,0,0,0,0,0,0,0,0,0,1,
scooby_state_1504fc0|63|1 1,0,0,0,0,0,0,0,0,0,0,0,0,0,0,1,
scooby_state_90c8d4|29|6 1,0,0,0,0,0,0,0,0,0,0,0,0,0,0,1,
scooby_state_1500280|10|1 1,0,0,0,0,0,0,0,0,0,0,0,0,0,0,1,
scooby_state_90359d|2|0 1,0,0,0,0,0,0,0,0,0,0,0,0,0,0,1,
scooby_state_f33c36|49|11 1,0,0,0,0,0,0,0,0,0,0,0,0,0,0,1,
scooby_state_f33c84|50|1 1,0,0,0,0,0,0,0,0,0,0,0,0,0,0,1,
scooby_state_90bfc7|16|1 1,0,0,0,0,0,0,0,0,0,0,0,0,0,0,1,
scooby_state_140aa6d|21|9 1,0,0,0,0,0,0,0,0,0,0,0,0,0,0,1,
scooby_state_1413956|22|1 1,0,0,0,0,0,0,0,0,0,0,0,0,0,0,1,
scooby_state_140c301|4|0 1,0,0,0,0,0,0,0,0,0,0,0,0,0,0,1,
scooby_state_905678|43|-6 1,0,0,0,0,0,0,0,0,0,0,0,0,0,0,1,
scooby_state_140f429|31|30 1,0,0,0,0,0,0,0,0,0,0,0,0,0,0,1,
scooby_state_90c952|14|6 1,0,0,0,0,0,0,0,0,0,0,0,0,0,0,1,
scooby_state_140ea02|40|1 1,0,0,0,0,0,0,0,0,0,0,0,0,0,0,1,
scooby_state_91a82a|51|4 1,0,0,0,0,0,0,0,0,0,0,0,0,0,0,1,
scooby_state_8e09f9|42|-5 1,0,0,0,0,0,0,0,0,0,0,0,0,0,0,1,
scooby_state_140e290|52|1 1,0,0,0,0,0,0,0,0,0,0,0,0,0,0,1,
scooby_state_905afd|63|0 1,0,0,0,0,0,0,0,0,0,0,0,0,0,0,1,
scooby_state_905f6c|21|5 1,0,0,0,0,0,0,0,0,0,0,0,0,0,0,1,
scooby_state_1409ff3|16|-1 1,0,0,0,0,0,0,0,0,0,0,0,0,0,0,1,
scooby_state_141438b|13|6 1,0,0,0,0,0,0,0,0,0,0,0,0,0,0,1,
scooby_state_1412801|32|1 1,0,0,0,0,0,0,0,0,0,0,0,0,0,0,1,
scooby_state_90c19f|30|1 1,0,0,0,0,0,0,0,0,0,0,0,0,0,0,1,
scooby_state_14076c6|17|-46 1,0,0,0,0,0,0,0,0,0,0,0,0,0,0,1,
scooby_state_14061ee|29|1 1,0,0,0,0,0,0,0,0,0,0,0,0,0,0,1,
scooby_state_1413f55|5|1 1,0,0,0,0,0,0,0,0,0,0,0,0,0,0,1,
scooby_state_f33307|12|1 1,0,0,0,0,0,0,0,0,0,0,0,0,0,0,1,
scooby_state_1410250|8|-28 1,0,0,0,0,0,0,0,0,0,0,0,0,0,0,1,
scooby_state_14076d6|49|11 1,0,0,0,0,0,0,0,0,0,0,0,0,0,0,1,
scooby_state_140680a|22|1 1,0,0,0,0,0,0,0,0,0,0,0,0,0,0,1,
scooby_state_90cb40|41|1 1,0,0,0,0,0,0,0,0,0,0,0,0,0,0,1,
scooby_state_f34040|8|2 1,0,0,0,0,0,0,0,0,0,0,0,0,0,0,1,
scooby_state_916e97|40|-6 1,0,0,0,0,0,0,0,0,0,0,0,0,0,0,1,
scooby_state_140d000|0|-43 1,0,0,0,0,0,0,0,0,0,0,0,0,0,0,1,
scooby_state_140e160|44|6 1,0,0,0,0,0,0,0,0,0,0,0,0,0,0,1,
scooby_state_9160fb|32|11 1,0,0,0,0,0,0,0,0,0,0,0,0,0,0,1,
scooby_state_14074c1|19|1 1,0,0,0,0,0,0,0,0,0,0,0,0,0,0,1,
scooby_state_f335ab|39|6 1,0,0,0,0,0,0,0,0,0,0,0,0,0,0,1,
scooby_state_140eac4|56|5 1,0,0,0,0,0,0,0,0,0,0,0,0,0,0,1,
scooby_state_905fa7|59|6 1,0,0,0,0,0,0,0,0,0,0,0,0,0,0,1,
scooby_state_140e69a|21|6 1,0,0,0,0,0,0,0,0,0,0,0,0,0,0,1,
scooby_state_1502852|22|1 1,0,0,0,0,0,0,0,0,0,0,0,0,0,0,1,
scooby_state_916ba2|11|0 1,0,0,0,0,0,0,0,0,0,0,0,0,0,0,1,
scooby_state_1414b90|2|0 1,0,0,0,0,0,0,0,0,0,0,0,0,0,0,1,
scooby_state_916e7b|4|0 1,0,0,0,0,0,0,0,0,0,0,0,0,0,0,1,
scooby_state_9044c5|19|1 1,0,0,0,0,0,0,0,0,0,0,0,0,0,0,1,
scooby_state_90c8c1|40|11 1,0,0,0,0,0,0,0,0,0,0,0,0,0,0,1,
scooby_state_14143a3|9|6 1,0,0,0,0,0,0,0,0,0,0,0,0,0,0,1,
scooby_state_905629|52|6 1,0,0,0,0,0,0,0,0,0,0,0,0,0,0,1,
scooby_state_141473f|42|6 1,0,0,0,0,0,0,0,0,0,0,0,0,0,0,1,
scooby_state_90af8e|8|0 1,0,0,0,0,0,0,0,0,0,0,0,0,0,0,1,
scooby_state_90cb40|6|1 1,0,0,0,0,0,0,0,0,0,0,0,0,0,0,1,
scooby_state_1406bf0|51|2 1,0,0,0,0,0,0,0,0,0,0,0,0,0,0,1,
scooby_state_1409ff3|5|-2 1,0,0,0,0,0,0,0,0,0,0,0,0,0,0,1,
scooby_state_90cb40|9|1 1,0,0,0,0,0,0,0,0,0,0,0,0,0,0,1,
scooby_state_1409bed|38|3 1,0,0,0,0,0,0,0,0,0,0,0,0,0,0,1,
scooby_state_f3608f|50|-5 1,0,0,0,0,0,0,0,0,0,0,0,0,0,0,1,
scooby_state_9055e9|41|6 1,0,0,0,0,0,0,0,0,0,0,0,0,0,0,1,
scooby_state_140f429|36|5 1,0,0,0,0,0,0,0,0,0,0,0,0,0,0,1,
scooby_state_14fff90|18|1 1,0,0,0,0,0,0,0,0,0,0,0,0,0,0,1,
scooby_state_140f199|51|1 1,0,0,0,0,0,0,0,0,0,0,0,0,0,0,1,
scooby_state_f33e13|7|6 1,0,0,0,0,0,0,0,0,0,0,0,0,0,0,1,
scooby_state_140a613|4|4 1,0,0,0,0,0,0,0,0,0,0,0,0,0,0,1,
scooby_state_905f97|39|11 1,0,0,0,0,0,0,0,0,0,0,0,0,0,0,1,
scooby_state_140aa62|2|0 1,0,0,0,0,0,0,0,0,0,0,0,0,0,0,1,
scooby_state_f33e2b|5|0 1,0,0,0,0,0,0,0,0,0,0,0,0,0,0,1,
scooby_state_f33e03|12|6 1,0,0,0,0,0,0,0,0,0,0,0,0,0,0,1,
scooby_state_905f6c|34|11 1,0,0,0,0,0,0,0,0,0,0,0,0,0,0,1,
scooby_state_90bfbf|53|5 1,0,0,0,0,0,0,0,0,0,0,0,0,0,0,1,
scooby_state_91a82a|23|3 1,0,0,0,0,0,0,0,0,0,0,0,0,0,0,1,
scooby_state_1504282|34|-19 1,0,0,0,0,0,0,0,0,0,0,0,0,0,0,1,
scooby_state_90bf5a|29|6 1,0,0,0,0,0,0,0,0,0,0,0,0,0,0,1,
scooby_state_f33e13|52|6 1,0,0,0,0,0,0,0,0,0,0,0,0,0,0,1,
scooby_state_140d009|44|-16 1,0,0,0,0,0,0,0,0,0,0,0,0,0,0,1,
scooby_state_14108ff|60|6 1,0,0,0,0,0,0,0,0,0,0,0,0,0,0,1,
scooby_state_90bfbf|9|5 1,0,0,0,0,0,0,0,0,0,0,0,0,0,0,1,
scooby_state_90bf33|48|6 1,0,0,0,0,0,0,0,0,0,0,0,0,0,0,1,
scooby_state_90bf09|48|6 1,0,0,0,0,0,0,0,0,0,0,0,0,0,0,1,
scooby_state_91a830|25|1 1,0,0,0,0,0,0,0,0,0,0,0,0,0,0,1,
scooby_state_1502203|8|0 1,0,0,0,0,0,0,0,0,0,0,0,0,0,0,1,
scooby_state_916e92|19|16 1,0,0,0,0,0,0,0,0,0,0,0,0,0,0,1,
scooby_state_8e2741|29|1 1,0,0,0,0,0,0,0,0,0,0,0,0,0,0,1,
scooby_state_9035de|28|6 1,0,0,0,0,0,0,0,0,0,0,0,0,0,0,1,
scooby_state_140c600|53|5 1,0,0,0,0,0,0,0,0,0,0,0,0,0,0,1,
scooby_state_9047d6|24|6 1,0,0,0,0,0,0,0,0,0,0,0,0,0,0,1,
scooby_state_9055ee|46|5 1,0,0,0,0,0,0,0,0,0,0,0,0,0,0,1,
scooby_state_903a70|8|-9 1,0,0,0,0,0,0,0,0,0,0,0,0,0,0,1,
scooby_state_905639|14|6 1,0,0,0,0,0,0,0,0,0,0,0,0,0,0,1,
scooby_state_1406fc2|63|1 1,0,0,0,0,0,0,0,0,0,0,0,0,0,0,1,
scooby_state_916e60|15|11 1,0,0,0,0,0,0,0,0,0,0,0,0,0,0,1,
scooby_state_905f6c|57|11 1,0,0,0,0,0,0,0,0,0,0,0,0,0,0,1,
scooby_state_14fefd9|44|-9 1,0,0,0,0,0,0,0,0,0,0,0,0,0,0,1,
scooby_state_141028b|48|3 1,0,0,0,0,0,0,0,0,0,0,0,0,0,0,1,
scooby_state_9035f5|54|1 1,0,0,0,0,0,0,0,0,0,0,0,0,0,0,1,
scooby_state_1410250|0|-5 1,0,0,0,0,0,0,0,0,0,0,0,0,0,0,1,
scooby_state_90c1bc|43|1 1,0,0,0,0,0,0,0,0,0,0,0,0,0,0,1,
scooby_state_9055ee|51|5 1,0,0,0,0,0,0,0,0,0,0,0,0,0,0,1,
scooby_state_16800b0|17|6 1,0,0,0,0,0,0,0,0,0,0,0,0,0,0,1,
scooby_state_90c939|58|5 1,0,0,0,0,0,0,0,0,0,0,0,0,0,0,1,
scooby_state_140d003|40|7 1,0,0,0,0,0,0,0,0,0,0,0,0,0,0,1,
scooby_state_91a8a1|16|-5 1,0,0,0,0,0,0,0,0,0,0,0,0,0,0,1,
scooby_state_141055f|7|-1 1,0,0,0,0,0,0,0,0,0,0,0,0,0,0,1,
scooby_state_1407725|3|-5 1,0,0,0,0,0,0,0,0,0,0,0,0,0,0,1,
scooby_state_1409531|55|1 1,0,0,0,0,0,0,0,0,0,0,0,0,0,0,1,
scooby_state_1406243|9|1 1,0,0,0,0,0,0,0,0,0,0,0,0,0,0,1,
scooby_state_905653|28|6 1,0,0,0,0,0,0,0,0,0,0,0,0,0,0,1,
scooby_state_150284b|21|-2 1,0,0,0,0,0,0,0,0,0,0,0,0,0,0,1,
scooby_state_9030c3|3|1 1,0,0,0,0,0,0,0,0,0,0,0,0,0,0,1,
scooby_state_1409a10|61|1 1,0,0,0,0,0,0,0,0,0,0,0,0,0,0,1,
scooby_state_90b597|39|5 1,0,0,0,0,0,0,0,0,0,0,0,0,0,0,1,
scooby_state_903a70|13|9 1,0,0,0,0,0,0,0,0,0,0,0,0,0,0,1,
scooby_state_140e169|59|2 1,0,0,0,0,0,0,0,0,0,0,0,0,0,0,1,
scooby_state_140a610|59|11 1,0,0,0,0,0,0,0,0,0,0,0,0,0,0,1,
scooby_state_8e9ec0|53|16 1,0,0,0,0,0,0,0,0,0,0,0,0,0,0,1,
scooby_state_140f1a9|14|6 1,0,0,0,0,0,0,0,0,0,0,0,0,0,0,1,
scooby_state_1406fc7|51|11 1,0,0,0,0,0,0,0,0,0,0,0,0,0,0,1,
scooby_state_140e66c|3|0 1,0,0,0,0,0,0,0,0,0,0,0,0,0,0,1,
scooby_state_90bfc7|14|1 1,0,0,0,0,0,0,0,0,0,0,0,0,0,0,1,
scooby_state_140e164|39|3 1,0,0,0,0,0,0,0,0,0,0,0,0,0,0,1,
scooby_state_140e69a|63|6 1,0,0,0,0,0,0,0,0,0,0,0,0,0,0,1,
scooby_state_90bf09|29|6 1,0,0,0,0,0,0,0,0,0,0,0,0,0,0,1,
scooby_state_1409519|21|6 1,0,0,0,0,0,0,0,0,0,0,0,0,0,0,1,
scooby_state_90bfaf|10|-6 1,0,0,0,0,0,0,0,0,0,0,0,0,0,0,1,
scooby_state_140c301|15|6 1,0,0,0,0,0,0,0,0,0,0,0,0,0,0,1,
scooby_state_916113|14|11 1,0,0,0,0,0,0,0,0,0,0,0,0,0,0,1,
scooby_state_90bf49|29|6 1,0,0,0,0,0,0,0,0,0,0,0,0,0,0,1,
scooby_state_9035d9|53|4 1,0,0,0,0,0,0,0,0,0,0,0,0,0,0,1,
scooby_state_916e7b|0|-62 1,0,0,0,0,0,0,0,0,0,0,0,0,0,0,1,
scooby_state_904775|17|5 1,0,0,0,0,0,0,0,0,0,0,0,0,0,0,1,
scooby_state_f33838|7|6 1,0,0,0,0,0,0,0,0,0,0,0,0,0,0,1,
scooby_state_1409f60|4|2 1,0,0,0,0,0,0,0,0,0,0,0,0,0,0,1,
scooby_state_1406f59|13|-5 1,0,0,0,0,0,0,0,0,0,0,0,0,0,0,1,
scooby_state_90b5c5|23|1 1,0,0,0,0,0,0,0,0,0,0,0,0,0,0,1,
scooby_state_904763|8|6 1,0,0,0,0,0,0,0,0,0,0,0,0,0,0,1,

scooby_action_0_deg_dist 0,203,0,0,0,0,0,0,0,0,0,0,0,0,0,0,
scooby_action_-6_deg_dist 0,170,0,0,0,0,0,0,0,0,0,0,0,0,0,0,
scooby_action_3_deg_dist 0,712,83,0,159,0,30,0,0,0,0,0,0,0,0,0,
scooby_action_32_deg_dist 0,329,37,0,0,0,0,0,0,0,0,0,0,0,0,0,
scooby_action_4_deg_dist 0,424,77,0,100,0,0,0,0,0,0,0,0,0,0,0,
scooby_action_1_deg_dist 0,56173,35770,0,81657,0,1027524,0,0,0,0,0,0,0,0,0,
scooby_action_30_deg_dist 0,505,160,0,25,0,0,0,0,0,0,0,0,0,0,0,
scooby_action_5_deg_dist 0,14450,3,0,0,0,0,0,0,0,0,0,0,0,0,0,
scooby_action_10_deg_dist 0,7008,1917,0,2837,0,654,0,0,0,0,0,0,0,0,0,
scooby_action_-1_deg_dist 0,153,0,0,0,0,0,0,0,0,0,0,0,0,0,0,
scooby_action_23_deg_dist 0,504,133,0,119,0,0,0,0,0,0,0,0,0,0,0,
scooby_action_11_deg_dist 0,4935,2715,0,3437,0,19,0,0,0,0,0,0,0,0,0,
scooby_action_12_deg_dist 0,480,0,0,0,0,0,0,0,0,0,0,0,0,0,0,
scooby_action_-3_deg_dist 0,151,0,0,0,0,0,0,0,0,0,0,0,0,0,0,
scooby_action_22_deg_dist 0,479,0,0,0,0,0,0,0,0,0,0,0,0,0,0,

scooby_track_called 1244132
scooby_track_same_address 10113
scooby_track_evict 1233763

scooby_reward_demand_called 1244132
scooby_reward_demand_pt_not_found 79692
scooby_reward_demand_pt_found 1164440
scooby_reward_demand_pt_found_total 1164440
scooby_reward_demand_has_reward 8222
scooby_reward_train_called 52940
scooby_reward_assign_reward_called 1234011
scooby_reward_no_pref 203
scooby_reward_incorrect 52737
scooby_reward_correct_untimely 1049006
scooby_reward_correct_timely 107212
scooby_reward_out_of_bounds 24853
scooby_reward_tracker_hit 0

scooby_reward_none_low_bw 203
scooby_reward_none_high_bw 0
scooby_reward_incorrect_low_bw 52737
scooby_reward_incorrect_high_bw 0
scooby_reward_correct_untimely_low_bw 1049006
scooby_reward_correct_untimely_high_bw 0
scooby_reward_correct_timely_low_bw 107212
scooby_reward_correct_timely_high_bw 0
scooby_reward_out_of_bounds_low_bw 24853
scooby_reward_out_of_bounds_high_bw 0
scooby_reward_tracker_hit_low_bw 0
scooby_reward_tracker_hit_high_bw 0

scooby_reward_1 0,39028,1037321,96616,18503,0,
scooby_reward_3 0,754,136,31,46,0,
scooby_reward_4 0,351,158,55,35,0,
scooby_reward_5 0,3704,1096,8448,1144,0,
scooby_reward_10 0,4177,5242,1136,1858,0,
scooby_reward_11 0,3488,4866,591,2152,0,
scooby_reward_12 0,276,27,90,86,0,
scooby_reward_22 0,231,17,64,167,0,
scooby_reward_23 0,261,107,78,309,0,
scooby_reward_30 0,281,21,44,343,0,
scooby_reward_32 0,103,14,58,189,0,
scooby_reward_-1 0,19,0,0,2,0,
scooby_reward_-3 0,22,1,1,2,0,
scooby_reward_-6 0,42,0,0,17,0,
scooby_reward_0 203,0,0,0,0,0,

scooby_train_called 1233762
scooby_train_compute_reward 52940

scooby_register_fill_called 826052
scooby_register_fill_set 127765
scooby_register_fill_set_total 127765

scooby_register_prefetch_hit_called 3626400
scooby_register_prefetch_hit_set 988919
scooby_register_prefetch_hit_set_total 988919

scooby_pref_issue_scooby 6223876

learning_engine_featurewise.action.called 1244132
learning_engine_featurewise.action.explore 2289
learning_engine_featurewise.action.exploit 1241843
learning_engine_featurewise.action.fallback 0
learning_engine_featurewise.action.dyn_fallback_saved_bw 0
learning_engine_featurewise.action.dyn_fallback_saved_bw_acc 24732
learning_engine_featurewise.action.index_1_explored 151
learning_engine_featurewise.action.index_1_exploited 1200973
learning_engine_featurewise.action.index_3_explored 171
learning_engine_featurewise.action.index_3_exploited 813
learning_engine_featurewise.action.index_4_explored 154
learning_engine_featurewise.action.index_4_exploited 447
learning_engine_featurewise.action.index_5_explored 148
learning_engine_featurewise.action.index_5_exploited 14305
learning_engine_featurewise.action.index_10_explored 170
learning_engine_featurewise.action.index_10_exploited 12246
learning_engine_featurewise.action.index_11_explored 143
learning_engine_featurewise.action.index_11_exploited 10963
learning_engine_featurewise.action.index_12_explored 153
learning_engine_featurewise.action.index_12_exploited 327
learning_engine_featurewise.action.index_22_explored 163
learning_engine_featurewise.action.index_22_exploited 316
learning_engine_featurewise.action.index_23_explored 153
learning_engine_featurewise.action.index_23_exploited 603
learning_engine_featurewise.action.index_30_explored 161
learning_engine_featurewise.action.index_30_exploited 529
learning_engine_featurewise.action.index_32_explored 133
learning_engine_featurewise.action.index_32_exploited 233
learning_engine_featurewise.action.index_-1_explored 145
learning_engine_featurewise.action.index_-1_exploited 8
learning_engine_featurewise.action.index_-3_explored 149
learning_engine_featurewise.action.index_-3_exploited 2
learning_engine_featurewise.action.index_-6_explored 139
learning_engine_featurewise.action.index_-6_exploited 31
learning_engine_featurewise.action.index_0_explored 156
learning_engine_featurewise.action.index_0_exploited 47
learning_engine_featurewise.learn.called 1233762
learning_engine_featurewise.learn.su_skip_PC 0
learning_engine_featurewise.learn.su_skip_PC_Delta 0

learning_engine_featurewise.q_value_histogram.bucket_0 0
learning_engine_featurewise.q_value_histogram.bucket_1 0
learning_engine_featurewise.q_value_histogram.bucket_2 0
learning_engine_featurewise.q_value_histogram.bucket_3 0
learning_engine_featurewise.q_value_histogram.bucket_4 11067
learning_engine_featurewise.q_value_histogram.bucket_5 19225
learning_engine_featurewise.q_value_histogram.bucket_6 1211551
learning_engine_featurewise.q_value_histogram.bucket_7 0

learning_engine_featurewise.consensus.total 1241843
learning_engine_featurewise.consensus.feature_align_PC 1226930
learning_engine_featurewise.consensus.feature_align_PC_ratio 0.99
learning_engine_featurewise.consensus.feature_align_PC_Delta 1234247
learning_engine_featurewise.consensus.feature_align_PC_Delta_ratio 0.99
learning_engine_featurewise.consensus.feature_align_all 1219334
learning_engine_featurewise.consensus.feature_align_all_ratio 0.98

learning_engine_featurewise.feature_PC_min_weight 1000000.00000000
learning_engine_featurewise.feature_PC_max_weight 0.00000000
learning_engine_featurewise.feature_PC_Delta_min_weight 1000000.00000000
learning_engine_featurewise.feature_PC_Delta_max_weight 0.00000000
unique_pcs 3893
unique_pages 6143
unique_trigger_pcs 860
total_bitmaps_seen 0
unique_bitmaps_seen 0

scooby_bw_epochs 227063
scooby_bw_level_0 67622
scooby_bw_level_1 84453
scooby_bw_level_2 41267
scooby_bw_level_3 33721

scooby_ipc_epochs 0
scooby_ipc_level_0 0
scooby_ipc_level_1 0
scooby_ipc_level_2 0
scooby_ipc_level_3 0

scooby_cache_acc_epochs 55717
scooby_cache_acc_level_0 3742
scooby_cache_acc_level_1 718
scooby_cache_acc_level_2 611
scooby_cache_acc_level_3 630
scooby_cache_acc_level_4 643
scooby_cache_acc_level_5 1020
scooby_cache_acc_level_6 1490
scooby_cache_acc_level_7 2567
scooby_cache_acc_level_8 5835
scooby_cache_acc_level_9 38461

Channel_0_RQ_row_buffer_hit 242187
Channel_0_RQ_row_buffer_miss 727569
Channel_0_WQ_row_buffer_hit 79328
Channel_0_WQ_row_buffer_miss 263839
Channel_0_WQ_full 0
Channel_0_dbus_congested 737523

avg_congested_cycle 10

DRAM_bw_pochs 227063
DRAM_bw_level_0 67622
DRAM_bw_level_1 84453
DRAM_bw_level_2 41267
DRAM_bw_level_3 33721
