*************************************************
   ChampSim Multicore Out-of-Order Simulator
   Last compiled: Apr  3 2025 20:54:34
*************************************************
parsing config file: /home/zir/Pythia/config/pythia.ini

trace_0 /home/zir/ChampSim/ML-DPC/ChampSimTraces/spec17/621.wrf-s0.trace.xz
adding L2C_PREFETCHER: Scooby
Initialize SHIP state
warmup_instructions 10000000
simulation_instructions 50000000
champsim_seed 163
measure_ipc 0
measure_ipc_epoch 1000
measure_dram_bw 1
measure_dram_bw_epoch 256
measure_cache_acc 1
measure_cache_acc_epoch 1024
l1d_perfect 0
l2c_perfect 0
llc_perfect 0
l1d_semi_perfect 0
l2c_semi_perfect 0
llc_semi_perfect 0
semi_perfect_cache_page_buffer_size 64

num_cpus 1
cpu_freq 4000
dram_io_freq 2400
page_size 4096
block_size 64
max_read_per_cycle 8
max_fill_per_cycle 1
dram_channels 1
log2_dram_channels 0
dram_ranks 1
dram_banks 8
dram_rows 65536
dram_columns 128
dram_row_size 8
dram_size 4096
dram_pages 1048576

fetch_width 6
decode_width 6
exec_width 4
lq_width 2
sq_width 2
retire_width 4
scheduler_size 128
branch_mispredict_penalty 20
rob_size 256
lq_size 72
sq_size 56
num_instr_destinations_sparc 4
num_instr_destinations 2
num_instr_sources 4

itlb_set 16
itlb_way 8
itlb_rq_size 16
itlb_wq_size 16
itlb_pq_size 0
itlb_mshr_size 8
itlb_latency 1

dtlb_set 16
dtlb_way 4
dtlb_rq_size 16
dtlb_wq_size 16
dtlb_pq_size 0
dtlb_mshr_size 8
dtlb_latency 1

stlb_set 128
stlb_way 12
stlb_rq_size 32
stlb_wq_size 32
stlb_pq_size 0
stlb_mshr_size 16
stlb_latency 8

l1i_size 32
l1i_set 64
l1i_way 8
l1i_rq_size 64
l1i_wq_size 64
l1i_pq_size 8
l1i_mshr_size 8
l1i_latency 1

l1d_size 32
l1d_set 64
l1d_way 8
l1d_rq_size 64
l1d_wq_size 64
l1d_pq_size 8
l1d_mshr_size 16
l1d_latency 4

l2c_size 256
l2c_set 512
l2c_way 8
l2c_rq_size 32
l2c_wq_size 32
l2c_pq_size 32
l2c_mshr_size 32
l2c_latency 10

llc_size 2048
llc_set 2048
llc_way 16
llc_rq_size 32
llc_wq_size 32
llc_pq_size 32
llc_mshr_size 64
llc_latency 20

dram_channel_width 8
dram_wq_size 64
dram_rq_size 64
tRP 15
tRCD 15
tCAS 12.5
dram_dbus_turn_around_time 30
dram_write_high_wm 56
dram_write_low_wm 48
min_dram_writes_per_switch 16
dram_mtps 2400
dram_dbus_return_time 13

scooby_alpha 0.0065088
scooby_gamma 0.556301
scooby_epsilon 0.00182284
scooby_state_num_bits 10
scooby_max_states 1024
scooby_seed 200
scooby_policy EGreedy
scooby_learning_type SARSA
scooby_actions 1,3,4,5,10,11,12,22,23,30,32,-1,-3,-6,0,
scooby_max_actions 15
scooby_pt_size 256
scooby_st_size 64
scooby_max_pcs 5
scooby_max_offsets 5
scooby_max_deltas 5
scooby_reward_none -4
scooby_reward_incorrect -8
scooby_reward_correct_untimely 12
scooby_reward_correct_timely 20
scooby_brain_zero_init 0
scooby_enable_reward_all 0
scooby_enable_track_multiple 0
scooby_enable_reward_out_of_bounds 1
scooby_reward_out_of_bounds -12
scooby_state_type 1
scooby_state_hash_type 11
scooby_access_debug 0
scooby_print_access_debug 0
scooby_print_access_debug_pc deadbeef
scooby_print_access_debug_pc_count 0
scooby_print_trace 0
scooby_enable_state_action_stats 1
scooby_enable_reward_tracker_hit 0
scooby_reward_tracker_hit -2
scooby_enable_featurewise_engine 1
scooby_pref_degree 1
scooby_enable_dyn_degree 1
scooby_max_to_avg_q_thresholds 0.5,1,2,
scooby_dyn_degrees 1,2,4,4,
scooby_multi_deg_select_type 2
scooby_last_pref_offset_conf_thresholds 1,3,8,
scooby_dyn_degrees_type2 1,2,4,6,
scooby_action_tracker_size 2
scooby_high_bw_thresh 4
scooby_enable_hbw_reward 1
scooby_reward_hbw_correct_timely 20
scooby_reward_hbw_correct_untimely 12
scooby_reward_hbw_incorrect -14
scooby_reward_hbw_none -2
scooby_reward_hbw_out_of_bounds -12
scooby_reward_hbw_tracker_hit -2
scooby_last_pref_offset_conf_thresholds_hbw 1,3,8,
scooby_dyn_degrees_type2_hbw 1,2,4,6,

le_enable_trace 0
le_trace_interval 0
le_trace_file_name 
le_trace_state 0
le_enable_score_plot 0
le_plot_file_name 
le_plot_actions 
le_enable_action_trace 0
le_action_trace_interval 0
le_action_trace_name 
le_enable_action_plot 0

le_featurewise_active_features PC, PC_Delta
le_featurewise_num_tilings 3,3,
le_featurewise_num_tiles 128,128,
le_featurewise_hash_types 2,2,
le_featurewise_enable_tiling_offset 1,1,
le_featurewise_max_q_thresh 0.5
le_featurewise_enable_action_fallback 1
le_featurewise_feature_weights 1,1,
le_featurewise_enable_dynamic_weight 0
le_featurewise_weight_gradient 0.001
le_featurewise_disable_adjust_weight_all_features_align 1
le_featurewise_selective_update 0
le_featurewise_pooling_type 2
le_featurewise_enable_dyn_action_fallback 1
le_featurewise_bw_acc_check_level 1
le_featurewise_acc_thresh 2
le_featurewise_enable_trace 0
le_featurewise_trace_feature_type 0
le_featurewise_trace_feature 
le_featurewise_trace_interval 0
le_featurewise_trace_record_count 0
le_featurewise_trace_file_name 
le_featurewise_enable_score_plot 0
le_featurewise_plot_actions 
le_featurewise_plot_file_name 


Heartbeat CPU  0 instructions:    1000000 cycles:     526627 heartbeat IPC: 1.89888 cumulative IPC: 1.89888 (Simulation time: 0 hr 0 min 1 sec) 
Heartbeat CPU  0 instructions:    2000001 cycles:    1064113 heartbeat IPC: 1.86052 cumulative IPC: 1.87950 (Simulation time: 0 hr 0 min 2 sec) 
Heartbeat CPU  0 instructions:    3000000 cycles:    1601992 heartbeat IPC: 1.85915 cumulative IPC: 1.87267 (Simulation time: 0 hr 0 min 4 sec) 
Heartbeat CPU  0 instructions:    4000000 cycles:    2146209 heartbeat IPC: 1.83750 cumulative IPC: 1.86375 (Simulation time: 0 hr 0 min 5 sec) 
Heartbeat CPU  0 instructions:    5000001 cycles:    2691614 heartbeat IPC: 1.83350 cumulative IPC: 1.85762 (Simulation time: 0 hr 0 min 6 sec) 
Heartbeat CPU  0 instructions:    6000000 cycles:    3238465 heartbeat IPC: 1.82865 cumulative IPC: 1.85273 (Simulation time: 0 hr 0 min 8 sec) 
Heartbeat CPU  0 instructions:    7000000 cycles:    3784188 heartbeat IPC: 1.83243 cumulative IPC: 1.84980 (Simulation time: 0 hr 0 min 9 sec) 
Heartbeat CPU  0 instructions:    8000000 cycles:    4326796 heartbeat IPC: 1.84295 cumulative IPC: 1.84894 (Simulation time: 0 hr 0 min 11 sec) 
Heartbeat CPU  0 instructions:    9000001 cycles:    4878129 heartbeat IPC: 1.81379 cumulative IPC: 1.84497 (Simulation time: 0 hr 0 min 12 sec) 
Heartbeat CPU  0 instructions:   10000002 cycles:    5393391 heartbeat IPC: 1.94076 cumulative IPC: 1.85412 (Simulation time: 0 hr 0 min 13 sec) 

Warmup complete CPU  0 instructions:   10000002 cycles:    5393391 (Simulation time: 0 hr 0 min 13 sec) 

Heartbeat CPU  0 instructions:   11000003 cycles:    7071957 heartbeat IPC: 0.59575 cumulative IPC: 0.59575 (Simulation time: 0 hr 0 min 15 sec) 
Heartbeat CPU  0 instructions:   12000000 cycles:    8826150 heartbeat IPC: 0.57006 cumulative IPC: 0.58262 (Simulation time: 0 hr 0 min 17 sec) 
Heartbeat CPU  0 instructions:   13000002 cycles:   10571817 heartbeat IPC: 0.57285 cumulative IPC: 0.57933 (Simulation time: 0 hr 0 min 19 sec) 
Heartbeat CPU  0 instructions:   14000000 cycles:   12319107 heartbeat IPC: 0.57231 cumulative IPC: 0.57756 (Simulation time: 0 hr 0 min 21 sec) 
Heartbeat CPU  0 instructions:   15000002 cycles:   14092417 heartbeat IPC: 0.56392 cumulative IPC: 0.57478 (Simulation time: 0 hr 0 min 23 sec) 
Heartbeat CPU  0 instructions:   16000000 cycles:   15844778 heartbeat IPC: 0.57066 cumulative IPC: 0.57409 (Simulation time: 0 hr 0 min 25 sec) 
Heartbeat CPU  0 instructions:   17000000 cycles:   17538089 heartbeat IPC: 0.59056 cumulative IPC: 0.57638 (Simulation time: 0 hr 0 min 27 sec) 
Heartbeat CPU  0 instructions:   18000003 cycles:   19301431 heartbeat IPC: 0.56711 cumulative IPC: 0.57521 (Simulation time: 0 hr 0 min 29 sec) 
Heartbeat CPU  0 instructions:   19000000 cycles:   20912011 heartbeat IPC: 0.62089 cumulative IPC: 0.57995 (Simulation time: 0 hr 0 min 31 sec) 
Heartbeat CPU  0 instructions:   20000000 cycles:   22675690 heartbeat IPC: 0.56700 cumulative IPC: 0.57863 (Simulation time: 0 hr 0 min 33 sec) 
Heartbeat CPU  0 instructions:   21000000 cycles:   24428875 heartbeat IPC: 0.57039 cumulative IPC: 0.57787 (Simulation time: 0 hr 0 min 35 sec) 
Heartbeat CPU  0 instructions:   22000000 cycles:   26180891 heartbeat IPC: 0.57077 cumulative IPC: 0.57727 (Simulation time: 0 hr 0 min 37 sec) 
Heartbeat CPU  0 instructions:   23000000 cycles:   27925366 heartbeat IPC: 0.57324 cumulative IPC: 0.57696 (Simulation time: 0 hr 0 min 39 sec) 
Heartbeat CPU  0 instructions:   24000000 cycles:   29696414 heartbeat IPC: 0.56464 cumulative IPC: 0.57606 (Simulation time: 0 hr 0 min 41 sec) 
Heartbeat CPU  0 instructions:   25000002 cycles:   31471981 heartbeat IPC: 0.56320 cumulative IPC: 0.57518 (Simulation time: 0 hr 0 min 43 sec) 
Heartbeat CPU  0 instructions:   26000001 cycles:   33135536 heartbeat IPC: 0.60112 cumulative IPC: 0.57674 (Simulation time: 0 hr 0 min 45 sec) 
Heartbeat CPU  0 instructions:   27000003 cycles:   34900218 heartbeat IPC: 0.56668 cumulative IPC: 0.57614 (Simulation time: 0 hr 0 min 47 sec) 
Heartbeat CPU  0 instructions:   28000000 cycles:   36556606 heartbeat IPC: 0.60372 cumulative IPC: 0.57760 (Simulation time: 0 hr 0 min 49 sec) 
Heartbeat CPU  0 instructions:   29000002 cycles:   38269804 heartbeat IPC: 0.58370 cumulative IPC: 0.57792 (Simulation time: 0 hr 0 min 51 sec) 
Heartbeat CPU  0 instructions:   30000000 cycles:   40035703 heartbeat IPC: 0.56628 cumulative IPC: 0.57733 (Simulation time: 0 hr 0 min 53 sec) 
Heartbeat CPU  0 instructions:   31000000 cycles:   41778012 heartbeat IPC: 0.57395 cumulative IPC: 0.57717 (Simulation time: 0 hr 0 min 55 sec) 
Heartbeat CPU  0 instructions:   32000000 cycles:   43524235 heartbeat IPC: 0.57266 cumulative IPC: 0.57696 (Simulation time: 0 hr 0 min 57 sec) 
Heartbeat CPU  0 instructions:   33000001 cycles:   45293638 heartbeat IPC: 0.56516 cumulative IPC: 0.57644 (Simulation time: 0 hr 0 min 59 sec) 
Heartbeat CPU  0 instructions:   34000002 cycles:   47066438 heartbeat IPC: 0.56408 cumulative IPC: 0.57591 (Simulation time: 0 hr 1 min 1 sec) 
Heartbeat CPU  0 instructions:   35000003 cycles:   48716744 heartbeat IPC: 0.60595 cumulative IPC: 0.57706 (Simulation time: 0 hr 1 min 3 sec) 
Heartbeat CPU  0 instructions:   36000000 cycles:   50483187 heartbeat IPC: 0.56611 cumulative IPC: 0.57663 (Simulation time: 0 hr 1 min 5 sec) 
Heartbeat CPU  0 instructions:   37000000 cycles:   52186660 heartbeat IPC: 0.58704 cumulative IPC: 0.57701 (Simulation time: 0 hr 1 min 7 sec) 
Heartbeat CPU  0 instructions:   38000003 cycles:   53855143 heartbeat IPC: 0.59935 cumulative IPC: 0.57778 (Simulation time: 0 hr 1 min 9 sec) 
Heartbeat CPU  0 instructions:   39000002 cycles:   55620058 heartbeat IPC: 0.56660 cumulative IPC: 0.57738 (Simulation time: 0 hr 1 min 11 sec) 
Heartbeat CPU  0 instructions:   40000000 cycles:   57364279 heartbeat IPC: 0.57332 cumulative IPC: 0.57725 (Simulation time: 0 hr 1 min 13 sec) 
Heartbeat CPU  0 instructions:   41000001 cycles:   59108607 heartbeat IPC: 0.57329 cumulative IPC: 0.57712 (Simulation time: 0 hr 1 min 15 sec) 
Heartbeat CPU  0 instructions:   42000000 cycles:   60875884 heartbeat IPC: 0.56584 cumulative IPC: 0.57676 (Simulation time: 0 hr 1 min 17 sec) 
Heartbeat CPU  0 instructions:   43000000 cycles:   62649926 heartbeat IPC: 0.56368 cumulative IPC: 0.57635 (Simulation time: 0 hr 1 min 19 sec) 
Heartbeat CPU  0 instructions:   44000000 cycles:   64276828 heartbeat IPC: 0.61467 cumulative IPC: 0.57741 (Simulation time: 0 hr 1 min 21 sec) 
Heartbeat CPU  0 instructions:   45000000 cycles:   66041516 heartbeat IPC: 0.56667 cumulative IPC: 0.57710 (Simulation time: 0 hr 1 min 23 sec) 
Heartbeat CPU  0 instructions:   46000000 cycles:   67702572 heartbeat IPC: 0.60203 cumulative IPC: 0.57776 (Simulation time: 0 hr 1 min 25 sec) 
Heartbeat CPU  0 instructions:   47000001 cycles:   69405841 heartbeat IPC: 0.58711 cumulative IPC: 0.57801 (Simulation time: 0 hr 1 min 27 sec) 
Heartbeat CPU  0 instructions:   48000000 cycles:   71175280 heartbeat IPC: 0.56515 cumulative IPC: 0.57767 (Simulation time: 0 hr 1 min 29 sec) 
Heartbeat CPU  0 instructions:   49000000 cycles:   72917321 heartbeat IPC: 0.57404 cumulative IPC: 0.57757 (Simulation time: 0 hr 1 min 31 sec) 
Heartbeat CPU  0 instructions:   50000001 cycles:   74661824 heartbeat IPC: 0.57323 cumulative IPC: 0.57746 (Simulation time: 0 hr 1 min 33 sec) 
Heartbeat CPU  0 instructions:   51000003 cycles:   76431325 heartbeat IPC: 0.56513 cumulative IPC: 0.57716 (Simulation time: 0 hr 1 min 35 sec) 
Heartbeat CPU  0 instructions:   52000000 cycles:   78179887 heartbeat IPC: 0.57190 cumulative IPC: 0.57703 (Simulation time: 0 hr 1 min 37 sec) 
Heartbeat CPU  0 instructions:   53000003 cycles:   79818848 heartbeat IPC: 0.61014 cumulative IPC: 0.57776 (Simulation time: 0 hr 1 min 39 sec) 
Heartbeat CPU  0 instructions:   54000003 cycles:   81584841 heartbeat IPC: 0.56625 cumulative IPC: 0.57749 (Simulation time: 0 hr 1 min 41 sec) 
Heartbeat CPU  0 instructions:   55000002 cycles:   83238634 heartbeat IPC: 0.60467 cumulative IPC: 0.57807 (Simulation time: 0 hr 1 min 43 sec) 
Heartbeat CPU  0 instructions:   56000000 cycles:   84938905 heartbeat IPC: 0.58814 cumulative IPC: 0.57829 (Simulation time: 0 hr 1 min 45 sec) 
Heartbeat CPU  0 instructions:   57000000 cycles:   86702279 heartbeat IPC: 0.56709 cumulative IPC: 0.57804 (Simulation time: 0 hr 1 min 47 sec) 
Heartbeat CPU  0 instructions:   58000002 cycles:   88455080 heartbeat IPC: 0.57052 cumulative IPC: 0.57788 (Simulation time: 0 hr 1 min 49 sec) 
Heartbeat CPU  0 instructions:   59000000 cycles:   90200118 heartbeat IPC: 0.57305 cumulative IPC: 0.57778 (Simulation time: 0 hr 1 min 51 sec) 
Heartbeat CPU  0 instructions:   60000000 cycles:   91970788 heartbeat IPC: 0.56476 cumulative IPC: 0.57752 (Simulation time: 0 hr 1 min 53 sec) 
Finished CPU 0 instructions: 50000002 cycles: 86577410 cumulative IPC: 0.57752 (Simulation time: 0 hr 1 min 53 sec) 

ChampSim completed all CPUs

[ROI Statistics]
Core_0_instructions 50000002
Core_0_cycles 86577410
Core_0_IPC 0.57752

Core_0_branch_prediction_accuracy 98.88336
Core_0_branch_MPKI 1.23058
Core_0_average_ROB_occupancy_at_mispredict 207.11302

Core_0_L1D_total_access 9028468
Core_0_L1D_total_hit 9026895
Core_0_L1D_total_miss 1573
Core_0_L1D_loads 7094671
Core_0_L1D_load_hit 7094026
Core_0_L1D_load_miss 645
Core_0_L1D_RFOs 1933797
Core_0_L1D_RFO_hit 1932869
Core_0_L1D_RFO_miss 928
Core_0_L1D_prefetches 0
Core_0_L1D_prefetch_hit 0
Core_0_L1D_prefetch_miss 0
Core_0_L1D_writebacks 0
Core_0_L1D_writeback_hit 0
Core_0_L1D_writeback_miss 0
Core_0_L1D_prefetch_requested 0
Core_0_L1D_prefetch_dropped 0
Core_0_L1D_prefetch_issued 0
Core_0_L1D_prefetch_filled 0
Core_0_L1D_prefetch_useful 0
Core_0_L1D_prefetch_useless 0
Core_0_L1D_prefetch_late 0
Core_0_L1D_average_miss_latency 112.48442

Core_0_L1D_rq_access 8728056
Core_0_L1D_rq_forward 0
Core_0_L1D_rq_merged 1633239
Core_0_L1D_rq_to_cache 7094817
Core_0_L1D_rq_full 0

Core_0_L1D_wq_access 1934956
Core_0_L1D_wq_forward 0
Core_0_L1D_wq_merged 60
Core_0_L1D_wq_to_cache 1934896
Core_0_L1D_wq_full 0

Core_0_L1D_pq_access 0
Core_0_L1D_pq_forward 0
Core_0_L1D_pq_merged 0
Core_0_L1D_pq_to_cache 0
Core_0_L1D_pq_full 0

Core_0_L1D_acc_epochs 89811
Core_0_L1D_acc_level_0 89811
Core_0_L1D_acc_level_1 0
Core_0_L1D_acc_level_2 0
Core_0_L1D_acc_level_3 0
Core_0_L1D_acc_level_4 0
Core_0_L1D_acc_level_5 0
Core_0_L1D_acc_level_6 0
Core_0_L1D_acc_level_7 0
Core_0_L1D_acc_level_8 0
Core_0_L1D_acc_level_9 0

Core_0_L1I_total_access 19164565
Core_0_L1I_total_hit 19164245
Core_0_L1I_total_miss 320
Core_0_L1I_loads 19164565
Core_0_L1I_load_hit 19164245
Core_0_L1I_load_miss 320
Core_0_L1I_RFOs 0
Core_0_L1I_RFO_hit 0
Core_0_L1I_RFO_miss 0
Core_0_L1I_prefetches 0
Core_0_L1I_prefetch_hit 0
Core_0_L1I_prefetch_miss 0
Core_0_L1I_writebacks 0
Core_0_L1I_writeback_hit 0
Core_0_L1I_writeback_miss 0
Core_0_L1I_prefetch_requested 0
Core_0_L1I_prefetch_dropped 0
Core_0_L1I_prefetch_issued 0
Core_0_L1I_prefetch_filled 0
Core_0_L1I_prefetch_useful 0
Core_0_L1I_prefetch_useless 0
Core_0_L1I_prefetch_late 0
Core_0_L1I_average_miss_latency 11.64062

Core_0_L1I_rq_access 50000005
Core_0_L1I_rq_forward 0
Core_0_L1I_rq_merged 30835260
Core_0_L1I_rq_to_cache 19164745
Core_0_L1I_rq_full 0

Core_0_L1I_wq_access 0
Core_0_L1I_wq_forward 0
Core_0_L1I_wq_merged 0
Core_0_L1I_wq_to_cache 0
Core_0_L1I_wq_full 0

Core_0_L1I_pq_access 0
Core_0_L1I_pq_forward 0
Core_0_L1I_pq_merged 0
Core_0_L1I_pq_to_cache 0
Core_0_L1I_pq_full 0

Core_0_L1I_acc_epochs 89811
Core_0_L1I_acc_level_0 89811
Core_0_L1I_acc_level_1 0
Core_0_L1I_acc_level_2 0
Core_0_L1I_acc_level_3 0
Core_0_L1I_acc_level_4 0
Core_0_L1I_acc_level_5 0
Core_0_L1I_acc_level_6 0
Core_0_L1I_acc_level_7 0
Core_0_L1I_acc_level_8 0
Core_0_L1I_acc_level_9 0

Core_0_L2C_total_access 5330
Core_0_L2C_total_hit 3975
Core_0_L2C_total_miss 1355
Core_0_L2C_loads 965
Core_0_L2C_load_hit 787
Core_0_L2C_load_miss 178
Core_0_L2C_RFOs 928
Core_0_L2C_RFO_hit 208
Core_0_L2C_RFO_miss 720
Core_0_L2C_prefetches 2366
Core_0_L2C_prefetch_hit 1909
Core_0_L2C_prefetch_miss 457
Core_0_L2C_writebacks 1071
Core_0_L2C_writeback_hit 1071
Core_0_L2C_writeback_miss 0
Core_0_L2C_prefetch_requested 5463
Core_0_L2C_prefetch_dropped 0
Core_0_L2C_prefetch_issued 5463
Core_0_L2C_prefetch_filled 1175
Core_0_L2C_prefetch_useful 811
Core_0_L2C_prefetch_useless 1
Core_0_L2C_prefetch_late 66
Core_0_L2C_average_miss_latency 181.34982

Core_0_L2C_rq_access 1893
Core_0_L2C_rq_forward 0
Core_0_L2C_rq_merged 0
Core_0_L2C_rq_to_cache 1893
Core_0_L2C_rq_full 0

Core_0_L2C_wq_access 1071
Core_0_L2C_wq_forward 0
Core_0_L2C_wq_merged 0
Core_0_L2C_wq_to_cache 1071
Core_0_L2C_wq_full 0

Core_0_L2C_pq_access 5463
Core_0_L2C_pq_forward 0
Core_0_L2C_pq_merged 855
Core_0_L2C_pq_to_cache 4608
Core_0_L2C_pq_full 0

Core_0_L2C_acc_epochs 89811
Core_0_L2C_acc_level_0 89317
Core_0_L2C_acc_level_1 144
Core_0_L2C_acc_level_2 123
Core_0_L2C_acc_level_3 22
Core_0_L2C_acc_level_4 18
Core_0_L2C_acc_level_5 104
Core_0_L2C_acc_level_6 20
Core_0_L2C_acc_level_7 17
Core_0_L2C_acc_level_8 9
Core_0_L2C_acc_level_9 37

Core_0_LLC_total_access 1356
Core_0_LLC_total_hit 1
Core_0_LLC_total_miss 1355
Core_0_LLC_loads 119
Core_0_LLC_load_hit 0
Core_0_LLC_load_miss 119
Core_0_LLC_RFOs 720
Core_0_LLC_RFO_hit 0
Core_0_LLC_RFO_miss 720
Core_0_LLC_prefetches 516
Core_0_LLC_prefetch_hit 0
Core_0_LLC_prefetch_miss 516
Core_0_LLC_writebacks 1
Core_0_LLC_writeback_hit 1
Core_0_LLC_writeback_miss 0
Core_0_LLC_prefetch_requested 0
Core_0_LLC_prefetch_dropped 0
Core_0_LLC_prefetch_issued 0
Core_0_LLC_prefetch_filled 1241
Core_0_LLC_prefetch_useful 0
Core_0_LLC_prefetch_useless 0
Core_0_LLC_prefetch_late 0
Core_0_LLC_average_miss_latency 151.31808

Core_0_LLC_rq_access 839
Core_0_LLC_rq_forward 0
Core_0_LLC_rq_merged 0
Core_0_LLC_rq_to_cache 839
Core_0_LLC_rq_full 0

Core_0_LLC_wq_access 1
Core_0_LLC_wq_forward 0
Core_0_LLC_wq_merged 0
Core_0_LLC_wq_to_cache 1
Core_0_LLC_wq_full 0

Core_0_LLC_pq_access 1241
Core_0_LLC_pq_forward 0
Core_0_LLC_pq_merged 0
Core_0_LLC_pq_to_cache 1241
Core_0_LLC_pq_full 0

Core_0_LLC_acc_epochs 89816
Core_0_LLC_acc_level_0 89816
Core_0_LLC_acc_level_1 0
Core_0_LLC_acc_level_2 0
Core_0_LLC_acc_level_3 0
Core_0_LLC_acc_level_4 0
Core_0_LLC_acc_level_5 0
Core_0_LLC_acc_level_6 0
Core_0_LLC_acc_level_7 0
Core_0_LLC_acc_level_8 0
Core_0_LLC_acc_level_9 0

Core_0_major_page_fault 0
Core_0_minor_page_fault 151

scooby_st_lookup 1722
scooby_st_hit 1578
scooby_st_evict 80
scooby_st_insert 144
scooby_st_streaming 0

scooby_predict_called 1722
scooby_predict_out_of_bounds 27
scooby_predict_action_1 1688
scooby_predict_issue_action_1 1469
scooby_predict_hit_action_1 219
scooby_predict_out_of_bounds_action_1 26
scooby_predict_action_3 7
scooby_predict_issue_action_3 7
scooby_predict_hit_action_3 0
scooby_predict_out_of_bounds_action_3 0
scooby_predict_action_4 0
scooby_predict_issue_action_4 0
scooby_predict_hit_action_4 0
scooby_predict_out_of_bounds_action_4 0
scooby_predict_action_5 0
scooby_predict_issue_action_5 0
scooby_predict_hit_action_5 0
scooby_predict_out_of_bounds_action_5 0
scooby_predict_action_10 0
scooby_predict_issue_action_10 0
scooby_predict_hit_action_10 0
scooby_predict_out_of_bounds_action_10 0
scooby_predict_action_11 0
scooby_predict_issue_action_11 0
scooby_predict_hit_action_11 0
scooby_predict_out_of_bounds_action_11 0
scooby_predict_action_12 0
scooby_predict_issue_action_12 0
scooby_predict_hit_action_12 0
scooby_predict_out_of_bounds_action_12 0
scooby_predict_action_22 0
scooby_predict_issue_action_22 0
scooby_predict_hit_action_22 0
scooby_predict_out_of_bounds_action_22 0
scooby_predict_action_23 0
scooby_predict_issue_action_23 0
scooby_predict_hit_action_23 0
scooby_predict_out_of_bounds_action_23 0
scooby_predict_action_30 0
scooby_predict_issue_action_30 0
scooby_predict_hit_action_30 0
scooby_predict_out_of_bounds_action_30 0
scooby_predict_action_32 0
scooby_predict_issue_action_32 0
scooby_predict_hit_action_32 0
scooby_predict_out_of_bounds_action_32 1
scooby_predict_action_-1 0
scooby_predict_issue_action_-1 0
scooby_predict_hit_action_-1 0
scooby_predict_out_of_bounds_action_-1 0
scooby_predict_action_-3 0
scooby_predict_issue_action_-3 0
scooby_predict_hit_action_-3 0
scooby_predict_out_of_bounds_action_-3 0
scooby_predict_action_-6 0
scooby_predict_issue_action_-6 0
scooby_predict_hit_action_-6 0
scooby_predict_out_of_bounds_action_-6 0
scooby_predict_action_0 0
scooby_predict_issue_action_0 0
scooby_predict_hit_action_0 0
scooby_predict_out_of_bounds_action_0 0
scooby_predict_multi_deg_called 1101
scooby_predict_predicted 5463
scooby_predict_multi_deg 3987
scooby_predict_multi_deg_2 1081
scooby_predict_multi_deg_3 880
scooby_predict_multi_deg_4 865
scooby_predict_multi_deg_5 596
scooby_predict_multi_deg_6 565
scooby_predict_multi_deg_7 0
scooby_predict_multi_deg_8 0
scooby_predict_multi_deg_9 0
scooby_predict_multi_deg_10 0
scooby_predict_multi_deg_11 0
scooby_predict_multi_deg_12 0
scooby_predict_multi_deg_13 0
scooby_predict_multi_deg_14 0
scooby_predict_multi_deg_15 0
scooby_predict_multi_deg_16 0

scooby_selected_deg_1 375
scooby_selected_deg_2 189
scooby_selected_deg_3 0
scooby_selected_deg_4 271
scooby_selected_deg_5 0
scooby_selected_deg_6 641
scooby_selected_deg_7 0
scooby_selected_deg_8 0
scooby_selected_deg_9 0
scooby_selected_deg_10 0
scooby_selected_deg_11 0
scooby_selected_deg_12 0
scooby_selected_deg_13 0
scooby_selected_deg_14 0
scooby_selected_deg_15 0
scooby_selected_deg_16 0

scooby_state_13b1102|4|1 7,0,0,0,0,0,0,0,0,0,0,0,0,0,0,7,
scooby_state_13abd84|54|1 7,0,0,0,0,0,0,0,0,0,0,0,0,0,0,7,
scooby_state_13b2102|4|1 7,0,0,0,0,0,0,0,0,0,0,0,0,0,0,7,
scooby_state_13abd46|53|1 7,0,0,0,0,0,0,0,0,0,0,0,0,0,0,7,
scooby_state_13b1d41|53|1 7,0,0,0,0,0,0,0,0,0,0,0,0,0,0,7,
scooby_state_13b1d81|54|1 7,0,0,0,0,0,0,0,0,0,0,0,0,0,0,7,
scooby_state_13b1bc2|47|43 6,0,0,0,0,0,0,0,0,0,0,0,0,0,0,6,
scooby_state_13b1d02|52|5 6,0,0,0,0,0,0,0,0,0,0,0,0,0,0,6,
scooby_state_13ad105|4|1 6,0,0,0,0,0,0,0,0,0,0,0,0,0,0,6,
scooby_state_1668b99|40|0 6,0,0,0,0,0,0,0,0,0,0,0,0,0,0,6,
scooby_state_13aed41|53|1 6,0,0,0,0,0,0,0,0,0,0,0,0,0,0,6,
scooby_state_13abe81|58|4 6,0,0,0,0,0,0,0,0,0,0,0,0,0,0,6,
scooby_state_13ac003|0|-4 6,0,0,0,0,0,0,0,0,0,0,0,0,0,0,6,
scooby_state_166a102|4|1 6,0,0,0,0,0,0,0,0,0,0,0,0,0,0,6,
scooby_state_13b0107|4|1 6,0,0,0,0,0,0,0,0,0,0,0,0,0,0,6,
scooby_state_13adeab|58|11 6,0,0,0,0,0,0,0,0,0,0,0,0,0,0,6,
scooby_state_13b0d86|54|1 6,0,0,0,0,0,0,0,0,0,0,0,0,0,0,6,
scooby_state_13abd02|52|5 5,0,0,0,0,0,0,0,0,0,1,0,0,0,0,6,
scooby_state_13ac101|4|1 6,0,0,0,0,0,0,0,0,0,0,0,0,0,0,6,
scooby_state_1669d41|53|1 6,0,0,0,0,0,0,0,0,0,0,0,0,0,0,6,
scooby_state_1669245|20|0 5,1,0,0,0,0,0,0,0,0,0,0,0,0,0,6,
scooby_state_13b3002|0|-4 6,0,0,0,0,0,0,0,0,0,0,0,0,0,0,6,
scooby_state_13b1e81|58|4 6,0,0,0,0,0,0,0,0,0,0,0,0,0,0,6,
scooby_state_13afd40|53|1 6,0,0,0,0,0,0,0,0,0,0,0,0,0,0,6,
scooby_state_13acd45|53|1 6,0,0,0,0,0,0,0,0,0,0,0,0,0,0,6,
scooby_state_13b2d45|53|1 6,0,0,0,0,0,0,0,0,0,0,0,0,0,0,6,
scooby_state_13afd81|54|1 6,0,0,0,0,0,0,0,0,0,0,0,0,0,0,6,
scooby_state_13acd87|54|1 6,0,0,0,0,0,0,0,0,0,0,0,0,0,0,6,
scooby_state_1669d81|54|1 6,0,0,0,0,0,0,0,0,0,0,0,0,0,0,6,
scooby_state_13b2d85|54|1 6,0,0,0,0,0,0,0,0,0,0,0,0,0,0,6,
scooby_state_13b2005|0|-4 6,0,0,0,0,0,0,0,0,0,0,0,0,0,0,6,
scooby_state_13b0d42|53|1 6,0,0,0,0,0,0,0,0,0,0,0,0,0,0,6,
scooby_state_13aed80|54|1 6,0,0,0,0,0,0,0,0,0,0,0,0,0,0,6,
scooby_state_13acbc0|47|-11 5,0,0,0,0,0,0,0,0,0,0,0,0,0,0,5,
scooby_state_13ace87|58|58 5,0,0,0,0,0,0,0,0,0,0,0,0,0,0,5,
scooby_state_15f2550|13|-1 5,0,0,0,0,0,0,0,0,0,0,0,0,0,0,5,
scooby_state_1669d36|52|5 5,0,0,0,0,0,0,0,0,0,0,0,0,0,0,5,
scooby_state_13abbc2|47|-11 5,0,0,0,0,0,0,0,0,0,0,0,0,0,0,5,
scooby_state_13b0bc1|47|43 5,0,0,0,0,0,0,0,0,0,0,0,0,0,0,5,
scooby_state_13b0003|0|-58 5,0,0,0,0,0,0,0,0,0,0,0,0,0,0,5,
scooby_state_13adbc5|47|43 5,0,0,0,0,0,0,0,0,0,0,0,0,0,0,5,
scooby_state_13ac175|12|0 5,0,0,0,0,0,0,0,0,0,0,0,0,0,0,5,
scooby_state_13ad0c7|3|3 5,0,0,0,0,0,0,0,0,0,0,0,0,0,0,5,
scooby_state_166bd30|33|0 4,1,0,0,0,0,0,0,0,0,0,0,0,0,0,5,
scooby_state_15f3d00|52|0 5,0,0,0,0,0,0,0,0,0,0,0,0,0,0,5,
scooby_state_13ad000|0|-58 5,0,0,0,0,0,0,0,0,0,0,0,0,0,0,5,
scooby_state_1669e8a|58|4 5,0,0,0,0,0,0,0,0,0,0,0,0,0,0,5,
scooby_state_13b0e82|58|4 5,0,0,0,0,0,0,0,0,0,0,0,0,0,0,5,
scooby_state_13b0662|24|6 5,0,0,0,0,0,0,0,0,0,0,0,0,0,0,5,
scooby_state_16688fb|20|0 5,0,0,0,0,0,0,0,0,0,0,0,0,0,0,5,
scooby_state_13b0c8a|22|0 5,0,0,0,0,0,0,0,0,0,0,0,0,0,0,5,
scooby_state_13b0d04|52|5 5,0,0,0,0,0,0,0,0,0,0,0,0,0,0,5,
scooby_state_13b30c2|3|3 5,0,0,0,0,0,0,0,0,0,0,0,0,0,0,5,
scooby_state_13b2e85|58|4 5,0,0,0,0,0,0,0,0,0,0,0,0,0,0,5,
scooby_state_166a0c1|3|3 5,0,0,0,0,0,0,0,0,0,0,0,0,0,0,5,
scooby_state_13b2bc5|47|47 5,0,0,0,0,0,0,0,0,0,0,0,0,0,0,5,
scooby_state_166bd89|54|2 5,0,0,0,0,0,0,0,0,0,0,0,0,0,0,5,
scooby_state_13b10c5|3|-55 5,0,0,0,0,0,0,0,0,0,0,0,0,0,0,5,
scooby_state_13b3107|4|1 5,0,0,0,0,0,0,0,0,0,0,0,0,0,0,5,
scooby_state_13acd1a|52|5 5,0,0,0,0,0,0,0,0,0,0,0,0,0,0,5,
scooby_state_166ae8d|58|54 5,0,0,0,0,0,0,0,0,0,0,0,0,0,0,5,
scooby_state_13b20c2|3|-55 5,0,0,0,0,0,0,0,0,0,0,0,0,0,0,5,
scooby_state_1625b33|33|-7 5,0,0,0,0,0,0,0,0,0,0,0,0,0,0,5,
scooby_state_13ac0c2|3|-51 5,0,0,0,0,0,0,0,0,0,0,0,0,0,0,5,
scooby_state_13b2d05|52|5 5,0,0,0,0,0,0,0,0,0,0,0,0,0,0,5,
scooby_state_13b00c0|3|3 5,0,0,0,0,0,0,0,0,0,0,0,0,0,0,5,
scooby_state_166bd10|52|-2 5,0,0,0,0,0,0,0,0,0,0,0,0,0,0,5,
scooby_state_13afbc6|47|-7 5,0,0,0,0,0,0,0,0,0,0,0,0,0,0,5,
scooby_state_166a001|0|-58 5,0,0,0,0,0,0,0,0,0,0,0,0,0,0,5,
scooby_state_13b07da|0|0 4,0,0,0,0,0,0,0,0,0,0,0,0,0,0,4,
scooby_state_13b1f9a|18|-12 4,0,0,0,0,0,0,0,0,0,0,0,0,0,0,4,
scooby_state_13afd27|52|5 4,0,0,0,0,0,0,0,0,0,0,0,0,0,0,4,
scooby_state_13b0e4b|23|0 4,0,0,0,0,0,0,0,0,0,0,0,0,0,0,4,
scooby_state_16800ed|59|1 4,0,0,0,0,0,0,0,0,0,0,0,0,0,0,4,
scooby_state_13b2998|22|0 4,0,0,0,0,0,0,0,0,0,0,0,0,0,0,4,
scooby_state_1668bc1|47|0 4,0,0,0,0,0,0,0,0,0,0,0,0,0,0,4,
scooby_state_1669c93|32|8 4,0,0,0,0,0,0,0,0,0,0,0,0,0,0,4,
scooby_state_16800ed|60|1 4,0,0,0,0,0,0,0,0,0,0,0,0,0,0,4,
scooby_state_13aed39|52|-2 4,0,0,0,0,0,0,0,0,0,0,0,0,0,0,4,
scooby_state_16800ed|61|1 4,0,0,0,0,0,0,0,0,0,0,0,0,0,0,4,
scooby_state_1669bc0|47|-11 4,0,0,0,0,0,0,0,0,0,0,0,0,0,0,4,
scooby_state_16800b0|44|0 3,0,0,0,0,0,0,0,0,0,0,0,0,0,0,3,
scooby_state_16800ed|56|1 3,0,0,0,0,0,0,0,0,0,0,0,0,0,0,3,
scooby_state_13b299e|61|2 3,0,0,0,0,0,0,0,0,0,0,0,0,0,0,3,
scooby_state_16800ed|35|1 3,0,0,0,0,0,0,0,0,0,0,0,0,0,0,3,
scooby_state_16800ed|62|1 3,0,0,0,0,0,0,0,0,0,0,0,0,0,0,3,
scooby_state_166bd19|24|-35 3,0,0,0,0,0,0,0,0,0,0,0,0,0,0,3,
scooby_state_13abba0|26|2 3,0,0,0,0,0,0,0,0,0,0,0,0,0,0,3,
scooby_state_13b2dd5|58|-2 3,0,0,0,0,0,0,0,0,0,0,0,0,0,0,3,
scooby_state_16800b0|32|0 3,0,0,0,0,0,0,0,0,0,0,0,0,0,0,3,
scooby_state_16267b8|20|0 3,0,0,0,0,0,0,0,0,0,0,0,0,0,0,3,
scooby_state_13b0983|40|0 3,0,0,0,0,0,0,0,0,0,0,0,0,0,0,3,
scooby_state_16800ed|52|1 3,0,0,0,0,0,0,0,0,0,0,0,0,0,0,3,
scooby_state_15f3d20|57|0 3,0,0,0,0,0,0,0,0,0,0,0,0,0,0,3,
scooby_state_13b0d0d|35|-28 3,0,0,0,0,0,0,0,0,0,0,0,0,0,0,3,
scooby_state_16800b0|51|0 3,0,0,0,0,0,0,0,0,0,0,0,0,0,0,3,
scooby_state_16800ed|42|1 3,0,0,0,0,0,0,0,0,0,0,0,0,0,0,3,
scooby_state_16800ed|54|1 3,0,0,0,0,0,0,0,0,0,0,0,0,0,0,3,
scooby_state_13af807|35|15 3,0,0,0,0,0,0,0,0,0,0,0,0,0,0,3,
scooby_state_16800ed|22|1 3,0,0,0,0,0,0,0,0,0,0,0,0,0,0,3,
scooby_state_1625a88|41|6 3,0,0,0,0,0,0,0,0,0,0,0,0,0,0,3,
scooby_state_16800b0|25|0 3,0,0,0,0,0,0,0,0,0,0,0,0,0,0,3,
scooby_state_13ac223|32|1 3,0,0,0,0,0,0,0,0,0,0,0,0,0,0,3,
scooby_state_16800ed|53|1 3,0,0,0,0,0,0,0,0,0,0,0,0,0,0,3,
scooby_state_15f2559|14|1 3,0,0,0,0,0,0,0,0,0,0,0,0,0,0,3,
scooby_state_13b0983|40|-21 3,0,0,0,0,0,0,0,0,0,0,0,0,0,0,3,
scooby_state_16800ed|40|1 3,0,0,0,0,0,0,0,0,0,0,0,0,0,0,3,
scooby_state_13afba5|31|-1 3,0,0,0,0,0,0,0,0,0,0,0,0,0,0,3,
scooby_state_16800ed|23|1 3,0,0,0,0,0,0,0,0,0,0,0,0,0,0,3,
scooby_state_16800ed|34|1 3,0,0,0,0,0,0,0,0,0,0,0,0,0,0,3,
scooby_state_15f2536|30|4 2,1,0,0,0,0,0,0,0,0,0,0,0,0,0,3,
scooby_state_16800ed|37|1 3,0,0,0,0,0,0,0,0,0,0,0,0,0,0,3,
scooby_state_16800b0|63|0 3,0,0,0,0,0,0,0,0,0,0,0,0,0,0,3,
scooby_state_16800ed|55|1 3,0,0,0,0,0,0,0,0,0,0,0,0,0,0,3,
scooby_state_16800ed|63|1 3,0,0,0,0,0,0,0,0,0,0,0,0,0,0,3,
scooby_state_16800ed|33|1 3,0,0,0,0,0,0,0,0,0,0,0,0,0,0,3,
scooby_state_16800ed|41|1 3,0,0,0,0,0,0,0,0,0,0,0,0,0,0,3,
scooby_state_16800ed|36|1 3,0,0,0,0,0,0,0,0,0,0,0,0,0,0,3,
scooby_state_1669e8f|55|23 3,0,0,0,0,0,0,0,0,0,0,0,0,0,0,3,
scooby_state_16800ed|21|1 3,0,0,0,0,0,0,0,0,0,0,0,0,0,0,3,
scooby_state_13b0ecf|41|18 3,0,0,0,0,0,0,0,0,0,0,0,0,0,0,3,
scooby_state_16800ed|46|1 2,0,0,0,0,0,0,0,0,0,0,0,0,0,0,2,
scooby_state_16800b0|18|0 2,0,0,0,0,0,0,0,0,0,0,0,0,0,0,2,
scooby_state_16800ed|28|1 2,0,0,0,0,0,0,0,0,0,0,0,0,0,0,2,
scooby_state_16800ed|48|1 2,0,0,0,0,0,0,0,0,0,0,0,0,0,0,2,
scooby_state_16800b0|20|0 2,0,0,0,0,0,0,0,0,0,0,0,0,0,0,2,
scooby_state_1625b33|37|1 2,0,0,0,0,0,0,0,0,0,0,0,0,0,0,2,
scooby_state_16800e5|44|1 2,0,0,0,0,0,0,0,0,0,0,0,0,0,0,2,
scooby_state_16800ed|0|0 2,0,0,0,0,0,0,0,0,0,0,0,0,0,0,2,
scooby_state_13b2cdd|60|-2 2,0,0,0,0,0,0,0,0,0,0,0,0,0,0,2,
scooby_state_16800ed|49|1 2,0,0,0,0,0,0,0,0,0,0,0,0,0,0,2,
scooby_state_1668861|26|-1 2,0,0,0,0,0,0,0,0,0,0,0,0,0,0,2,
scooby_state_13b0d0d|35|0 2,0,0,0,0,0,0,0,0,0,0,0,0,0,0,2,
scooby_state_1625b33|39|1 2,0,0,0,0,0,0,0,0,0,0,0,0,0,0,2,
scooby_state_16800e5|46|1 2,0,0,0,0,0,0,0,0,0,0,0,0,0,0,2,
scooby_state_16800ed|47|1 2,0,0,0,0,0,0,0,0,0,0,0,0,0,0,2,
scooby_state_13af9ef|54|-5 2,0,0,0,0,0,0,0,0,0,0,0,0,0,0,2,
scooby_state_16800ed|27|1 2,0,0,0,0,0,0,0,0,0,0,0,0,0,0,2,
scooby_state_16800ed|30|1 2,0,0,0,0,0,0,0,0,0,0,0,0,0,0,2,
scooby_state_16800e5|45|1 2,0,0,0,0,0,0,0,0,0,0,0,0,0,0,2,
scooby_state_16800b0|37|0 2,0,0,0,0,0,0,0,0,0,0,0,0,0,0,2,
scooby_state_13abc34|51|16 2,0,0,0,0,0,0,0,0,0,0,0,0,0,0,2,
scooby_state_16800b0|39|0 2,0,0,0,0,0,0,0,0,0,0,0,0,0,0,2,
scooby_state_15f2559|14|0 2,0,0,0,0,0,0,0,0,0,0,0,0,0,0,2,
scooby_state_1625b33|40|1 2,0,0,0,0,0,0,0,0,0,0,0,0,0,0,2,
scooby_state_16800b0|13|0 2,0,0,0,0,0,0,0,0,0,0,0,0,0,0,2,
scooby_state_13ad2a3|5|5 2,0,0,0,0,0,0,0,0,0,0,0,0,0,0,2,
scooby_state_16800ed|44|1 2,0,0,0,0,0,0,0,0,0,0,0,0,0,0,2,
scooby_state_16800b0|42|0 2,0,0,0,0,0,0,0,0,0,0,0,0,0,0,2,
scooby_state_13b0e4b|23|-18 2,0,0,0,0,0,0,0,0,0,0,0,0,0,0,2,
scooby_state_16800ed|18|1 2,0,0,0,0,0,0,0,0,0,0,0,0,0,0,2,
scooby_state_16800e5|43|1 2,0,0,0,0,0,0,0,0,0,0,0,0,0,0,2,
scooby_state_16800ed|16|1 2,0,0,0,0,0,0,0,0,0,0,0,0,0,0,2,
scooby_state_13af98d|61|21 2,0,0,0,0,0,0,0,0,0,0,0,0,0,0,2,
scooby_state_1625b33|34|1 2,0,0,0,0,0,0,0,0,0,0,0,0,0,0,2,
scooby_state_16800e5|2|1 2,0,0,0,0,0,0,0,0,0,0,0,0,0,0,2,
scooby_state_1668907|23|1 2,0,0,0,0,0,0,0,0,0,0,0,0,0,0,2,
scooby_state_13ac600|24|1 2,0,0,0,0,0,0,0,0,0,0,0,0,0,0,2,
scooby_state_1668898|10|-1 2,0,0,0,0,0,0,0,0,0,0,0,0,0,0,2,
scooby_state_16800ed|43|1 2,0,0,0,0,0,0,0,0,0,0,0,0,0,0,2,
scooby_state_13b1f9a|18|-8 2,0,0,0,0,0,0,0,0,0,0,0,0,0,0,2,
scooby_state_13ac142|48|0 2,0,0,0,0,0,0,0,0,0,0,0,0,0,0,2,
scooby_state_16800ed|25|1 2,0,0,0,0,0,0,0,0,0,0,0,0,0,0,2,
scooby_state_16800ed|24|1 2,0,0,0,0,0,0,0,0,0,0,0,0,0,0,2,
scooby_state_13af9ef|54|0 2,0,0,0,0,0,0,0,0,0,0,0,0,0,0,2,
scooby_state_16800ed|15|1 2,0,0,0,0,0,0,0,0,0,0,0,0,0,0,2,
scooby_state_16800ed|4|1 2,0,0,0,0,0,0,0,0,0,0,0,0,0,0,2,
scooby_state_16800ed|17|1 2,0,0,0,0,0,0,0,0,0,0,0,0,0,0,2,
scooby_state_16800e5|47|1 2,0,0,0,0,0,0,0,0,0,0,0,0,0,0,2,
scooby_state_1625b33|35|-6 2,0,0,0,0,0,0,0,0,0,0,0,0,0,0,2,
scooby_state_1625b33|40|5 2,0,0,0,0,0,0,0,0,0,0,0,0,0,0,2,
scooby_state_13b2a1d|57|-4 2,0,0,0,0,0,0,0,0,0,0,0,0,0,0,2,
scooby_state_166888a|59|33 2,0,0,0,0,0,0,0,0,0,0,0,0,0,0,2,
scooby_state_16800ed|3|1 2,0,0,0,0,0,0,0,0,0,0,0,0,0,0,2,
scooby_state_16800b0|56|0 2,0,0,0,0,0,0,0,0,0,0,0,0,0,0,2,
scooby_state_16800ed|2|1 2,0,0,0,0,0,0,0,0,0,0,0,0,0,0,2,
scooby_state_1625b33|35|1 2,0,0,0,0,0,0,0,0,0,0,0,0,0,0,2,
scooby_state_16267b0|18|0 2,0,0,0,0,0,0,0,0,0,0,0,0,0,0,2,
scooby_state_16800e5|0|0 2,0,0,0,0,0,0,0,0,0,0,0,0,0,0,2,
scooby_state_16800e5|1|1 2,0,0,0,0,0,0,0,0,0,0,0,0,0,0,2,
scooby_state_16800ed|45|1 2,0,0,0,0,0,0,0,0,0,0,0,0,0,0,2,
scooby_state_13acae0|63|28 2,0,0,0,0,0,0,0,0,0,0,0,0,0,0,2,
scooby_state_13aedd4|59|1 2,0,0,0,0,0,0,0,0,0,0,0,0,0,0,2,
scooby_state_13b2b6d|54|-2 2,0,0,0,0,0,0,0,0,0,0,0,0,0,0,2,
scooby_state_1626253|41|0 2,0,0,0,0,0,0,0,0,0,0,0,0,0,0,2,
scooby_state_166874b|11|5 2,0,0,0,0,0,0,0,0,0,0,0,0,0,0,2,
scooby_state_16800b0|58|0 2,0,0,0,0,0,0,0,0,0,0,0,0,0,0,2,
scooby_state_1625b33|38|1 2,0,0,0,0,0,0,0,0,0,0,0,0,0,0,2,
scooby_state_16800ed|14|1 2,0,0,0,0,0,0,0,0,0,0,0,0,0,0,2,
scooby_state_16800ed|29|1 2,0,0,0,0,0,0,0,0,0,0,0,0,0,0,2,
scooby_state_16800ed|1|1 2,0,0,0,0,0,0,0,0,0,0,0,0,0,0,2,
scooby_state_16800ed|26|1 2,0,0,0,0,0,0,0,0,0,0,0,0,0,0,2,
scooby_state_13b2c21|53|-1 2,0,0,0,0,0,0,0,0,0,0,0,0,0,0,2,
scooby_state_13acce6|22|1 1,0,0,0,0,0,0,0,0,0,0,0,0,0,0,1,
scooby_state_13acd1a|52|1 1,0,0,0,0,0,0,0,0,0,0,0,0,0,0,1,
scooby_state_13afd36|25|1 1,0,0,0,0,0,0,0,0,0,0,0,0,0,0,1,
scooby_state_13acdc4|55|1 1,0,0,0,0,0,0,0,0,0,0,0,0,0,0,1,
scooby_state_1625b41|45|1 1,0,0,0,0,0,0,0,0,0,0,0,0,0,0,1,
scooby_state_13ac941|37|1 1,0,0,0,0,0,0,0,0,0,0,0,0,0,0,1,
scooby_state_1625b33|40|-1 1,0,0,0,0,0,0,0,0,0,0,0,0,0,0,1,
scooby_state_13acce6|11|6 1,0,0,0,0,0,0,0,0,0,0,0,0,0,0,1,
scooby_state_16800ed|7|1 1,0,0,0,0,0,0,0,0,0,0,0,0,0,0,1,
scooby_state_13af72f|32|5 1,0,0,0,0,0,0,0,0,0,0,0,0,0,0,1,
scooby_state_13ac900|36|1 1,0,0,0,0,0,0,0,0,0,0,0,0,0,0,1,
scooby_state_13ac641|25|1 1,0,0,0,0,0,0,0,0,0,0,0,0,0,0,1,
scooby_state_13acccd|59|6 1,0,0,0,0,0,0,0,0,0,0,0,0,0,0,1,
scooby_state_13abb52|10|1 1,0,0,0,0,0,0,0,0,0,0,0,0,0,0,1,
scooby_state_13acce6|12|1 1,0,0,0,0,0,0,0,0,0,0,0,0,0,0,1,
scooby_state_1625b33|34|-5 1,0,0,0,0,0,0,0,0,0,0,0,0,0,0,1,
scooby_state_16800e5|19|1 1,0,0,0,0,0,0,0,0,0,0,0,0,0,0,1,
scooby_state_1625a88|41|3 1,0,0,0,0,0,0,0,0,0,0,0,0,0,0,1,
scooby_state_13acccd|61|1 1,0,0,0,0,0,0,0,0,0,0,0,0,0,0,1,
scooby_state_1625b33|36|1 1,0,0,0,0,0,0,0,0,0,0,0,0,0,0,1,
scooby_state_166874b|11|1 1,0,0,0,0,0,0,0,0,0,0,0,0,0,0,1,
scooby_state_13ac600|63|1 1,0,0,0,0,0,0,0,0,0,0,0,0,0,0,1,
scooby_state_13af702|28|1 1,0,0,0,0,0,0,0,0,0,0,0,0,0,0,1,
scooby_state_13b0cdf|9|1 1,0,0,0,0,0,0,0,0,0,0,0,0,0,0,1,
scooby_state_13acccd|63|1 1,0,0,0,0,0,0,0,0,0,0,0,0,0,0,1,
scooby_state_13b0a95|63|1 1,0,0,0,0,0,0,0,0,0,0,0,0,0,0,1,
scooby_state_1626050|1|1 1,0,0,0,0,0,0,0,0,0,0,0,0,0,0,1,
scooby_state_13ac981|38|1 1,0,0,0,0,0,0,0,0,0,0,0,0,0,0,1,
scooby_state_13ac880|34|1 1,0,0,0,0,0,0,0,0,0,0,0,0,0,0,1,
scooby_state_13acb00|44|1 1,0,0,0,0,0,0,0,0,0,0,0,0,0,0,1,
scooby_state_13acb46|45|1 1,0,0,0,0,0,0,0,0,0,0,0,0,0,0,1,
scooby_state_13b28c6|35|1 1,0,0,0,0,0,0,0,0,0,0,0,0,0,0,1,
scooby_state_13acbc0|47|1 1,0,0,0,0,0,0,0,0,0,0,0,0,0,0,1,
scooby_state_166ae8d|58|43 1,0,0,0,0,0,0,0,0,0,0,0,0,0,0,1,
scooby_state_13acac0|43|1 1,0,0,0,0,0,0,0,0,0,0,0,0,0,0,1,
scooby_state_13acccd|4|1 1,0,0,0,0,0,0,0,0,0,0,0,0,0,0,1,
scooby_state_13b0a95|53|1 1,0,0,0,0,0,0,0,0,0,0,0,0,0,0,1,
scooby_state_16800e5|5|1 1,0,0,0,0,0,0,0,0,0,0,0,0,0,0,1,
scooby_state_13acc80|50|1 1,0,0,0,0,0,0,0,0,0,0,0,0,0,0,1,
scooby_state_13abf80|62|1 1,0,0,0,0,0,0,0,0,0,0,0,0,0,0,1,
scooby_state_13b1b46|45|1 1,0,0,0,0,0,0,0,0,0,0,0,0,0,0,1,
scooby_state_13abc42|49|1 1,0,0,0,0,0,0,0,0,0,0,0,0,0,0,1,
scooby_state_13b20c2|3|1 1,0,0,0,0,0,0,0,0,0,0,0,0,0,0,1,
scooby_state_13b0cdf|3|1 1,0,0,0,0,0,0,0,0,0,0,0,0,0,0,1,
scooby_state_13accc0|51|1 1,0,0,0,0,0,0,0,0,0,0,0,0,0,0,1,
scooby_state_13b0c1e|47|1 1,0,0,0,0,0,0,0,0,0,0,0,0,0,0,1,
scooby_state_13abb82|46|1 1,0,0,0,0,0,0,0,0,0,0,0,0,0,0,1,
scooby_state_13b0bc1|47|1 1,0,0,0,0,0,0,0,0,0,0,0,0,0,0,1,
scooby_state_13ac600|21|1 1,0,0,0,0,0,0,0,0,0,0,0,0,0,0,1,
scooby_state_13acce6|28|1 1,0,0,0,0,0,0,0,0,0,0,0,0,0,0,1,
scooby_state_13ac8c7|35|1 1,0,0,0,0,0,0,0,0,0,0,0,0,0,0,1,
scooby_state_15f3a90|42|0 1,0,0,0,0,0,0,0,0,0,0,0,0,0,0,1,
scooby_state_1625a80|42|0 1,0,0,0,0,0,0,0,0,0,0,0,0,0,0,1,
scooby_state_13acb80|46|1 1,0,0,0,0,0,0,0,0,0,0,0,0,0,0,1,
scooby_state_1680117|0|0 1,0,0,0,0,0,0,0,0,0,0,0,0,0,0,1,
scooby_state_13ac846|33|1 1,0,0,0,0,0,0,0,0,0,0,0,0,0,0,1,
scooby_state_13ac780|30|1 1,0,0,0,0,0,0,0,0,0,0,0,0,0,0,1,
scooby_state_13afd36|13|1 1,0,0,0,0,0,0,0,0,0,0,0,0,0,0,1,
scooby_state_1625b02|44|1 1,0,0,0,0,0,0,0,0,0,0,0,0,0,0,1,
scooby_state_13b23c3|15|1 1,0,0,0,0,0,0,0,0,0,0,0,0,0,0,1,
scooby_state_13af75e|40|1 1,0,0,0,0,0,0,0,0,0,0,0,0,0,0,1,
scooby_state_13b0f80|56|1 1,0,0,0,0,0,0,0,0,0,0,0,0,0,0,1,
scooby_state_13b1a81|42|1 1,0,0,0,0,0,0,0,0,0,0,0,0,0,0,1,
scooby_state_166888a|59|32 1,0,0,0,0,0,0,0,0,0,0,0,0,0,0,1,
scooby_state_13acccd|15|1 1,0,0,0,0,0,0,0,0,0,0,0,0,0,0,1,
scooby_state_13acec0|59|1 1,0,0,0,0,0,0,0,0,0,0,0,0,0,0,1,
scooby_state_13b2570|14|0 1,0,0,0,0,0,0,0,0,0,0,0,0,0,0,1,
scooby_state_13b0e94|33|1 1,0,0,0,0,0,0,0,0,0,0,0,0,0,0,1,
scooby_state_13afa43|41|1 1,0,0,0,0,0,0,0,0,0,0,0,0,0,0,1,
scooby_state_13b1f94|49|1 1,0,0,0,0,0,0,0,0,0,0,0,0,0,0,1,
scooby_state_13b17c1|31|1 1,0,0,0,0,0,0,0,0,0,0,0,0,0,0,1,
scooby_state_1669245|9|0 1,0,0,0,0,0,0,0,0,0,0,0,0,0,0,1,
scooby_state_13abb3d|22|1 1,0,0,0,0,0,0,0,0,0,0,0,0,0,0,1,
scooby_state_13b1f9a|18|-31 1,0,0,0,0,0,0,0,0,0,0,0,0,0,0,1,
scooby_state_16800ed|9|1 1,0,0,0,0,0,0,0,0,0,0,0,0,0,0,1,
scooby_state_13b1f94|48|0 1,0,0,0,0,0,0,0,0,0,0,0,0,0,0,1,
scooby_state_13ad198|5|-3 1,0,0,0,0,0,0,0,0,0,0,0,0,0,0,1,
scooby_state_13b0cdf|2|1 1,0,0,0,0,0,0,0,0,0,0,0,0,0,0,1,
scooby_state_13b2ec1|59|1 1,0,0,0,0,0,0,0,0,0,0,0,0,0,0,1,
scooby_state_166bd19|24|-31 1,0,0,0,0,0,0,0,0,0,0,0,0,0,0,1,
scooby_state_13abb52|12|1 1,0,0,0,0,0,0,0,0,0,0,0,0,0,0,1,
scooby_state_13b12c5|11|1 1,0,0,0,0,0,0,0,0,0,0,0,0,0,0,1,
scooby_state_1625fc0|63|1 1,0,0,0,0,0,0,0,0,0,0,0,0,0,0,1,
scooby_state_13b203a|59|1 1,0,0,0,0,0,0,0,0,0,0,0,0,0,0,1,
scooby_state_13b0c1e|59|1 1,0,0,0,0,0,0,0,0,0,0,0,0,0,0,1,
scooby_state_13b0983|38|1 1,0,0,0,0,0,0,0,0,0,0,0,0,0,0,1,
scooby_state_162643e|43|1 1,0,0,0,0,0,0,0,0,0,0,0,0,0,0,1,
scooby_state_13b2005|1|1 1,0,0,0,0,0,0,0,0,0,0,0,0,0,0,1,
scooby_state_13b1f94|51|1 1,0,0,0,0,0,0,0,0,0,0,0,0,0,0,1,
scooby_state_13b1f94|50|1 1,0,0,0,0,0,0,0,0,0,0,0,0,0,0,1,
scooby_state_13b1c80|50|1 1,0,0,0,0,0,0,0,0,0,0,0,0,0,0,1,
scooby_state_13b0beb|6|1 1,0,0,0,0,0,0,0,0,0,0,0,0,0,0,1,
scooby_state_13b0e30|19|1 1,0,0,0,0,0,0,0,0,0,0,0,0,0,0,1,
scooby_state_13b1807|32|1 1,0,0,0,0,0,0,0,0,0,0,0,0,0,0,1,
scooby_state_1625a88|41|0 1,0,0,0,0,0,0,0,0,0,0,0,0,0,0,1,
scooby_state_1680117|21|1 1,0,0,0,0,0,0,0,0,0,0,0,0,0,0,1,
scooby_state_1680140|5|1 1,0,0,0,0,0,0,0,0,0,0,0,0,0,0,1,
scooby_state_13b1987|38|1 1,0,0,0,0,0,0,0,0,0,0,0,0,0,0,1,
scooby_state_16800b0|16|0 1,0,0,0,0,0,0,0,0,0,0,0,0,0,0,1,
scooby_state_13b2341|13|1 1,0,0,0,0,0,0,0,0,0,0,0,0,0,0,1,
scooby_state_13b1bc2|47|1 1,0,0,0,0,0,0,0,0,0,0,0,0,0,0,1,
scooby_state_13b1842|33|1 1,0,0,0,0,0,0,0,0,0,0,0,0,0,0,1,
scooby_state_13b203a|60|1 1,0,0,0,0,0,0,0,0,0,0,0,0,0,0,1,
scooby_state_13b1700|28|1 1,0,0,0,0,0,0,0,0,0,0,0,0,0,0,1,
scooby_state_13afb07|44|1 1,0,0,0,0,0,0,0,0,0,0,0,0,0,0,1,
scooby_state_1668bb0|26|0 0,1,0,0,0,0,0,0,0,0,0,0,0,0,0,1,
scooby_state_13ad1a6|60|24 1,0,0,0,0,0,0,0,0,0,0,0,0,0,0,1,
scooby_state_13b1f80|62|1 1,0,0,0,0,0,0,0,0,0,0,0,0,0,0,1,
scooby_state_16744c0|19|1 1,0,0,0,0,0,0,0,0,0,0,0,0,0,0,1,
scooby_state_13b0e94|43|1 1,0,0,0,0,0,0,0,0,0,0,0,0,0,0,1,
scooby_state_13b0f80|57|1 1,0,0,0,0,0,0,0,0,0,0,0,0,0,0,1,
scooby_state_13afd36|11|1 1,0,0,0,0,0,0,0,0,0,0,0,0,0,0,1,
scooby_state_13b2c01|48|1 1,0,0,0,0,0,0,0,0,0,0,0,0,0,0,1,
scooby_state_1668743|29|1 1,0,0,0,0,0,0,0,0,0,0,0,0,0,0,1,
scooby_state_15f2580|22|1 1,0,0,0,0,0,0,0,0,0,0,0,0,0,0,1,
scooby_state_13b0301|12|1 1,0,0,0,0,0,0,0,0,0,0,0,0,0,0,1,
scooby_state_13b0bbb|13|1 1,0,0,0,0,0,0,0,0,0,0,0,0,0,0,1,
scooby_state_13b2ac1|43|1 1,0,0,0,0,0,0,0,0,0,0,0,0,0,0,1,
scooby_state_13b1d02|52|1 1,0,0,0,0,0,0,0,0,0,0,0,0,0,0,1,
scooby_state_13b1283|10|1 1,0,0,0,0,0,0,0,0,0,0,0,0,0,0,1,
scooby_state_13ac354|23|1 1,0,0,0,0,0,0,0,0,0,0,0,0,0,0,1,
scooby_state_13b1e01|56|1 1,0,0,0,0,0,0,0,0,0,0,0,0,0,0,1,
scooby_state_13b2484|18|1 1,0,0,0,0,0,0,0,0,0,0,0,0,0,0,1,
scooby_state_13b2095|2|0 1,0,0,0,0,0,0,0,0,0,0,0,0,0,0,1,
scooby_state_13b1e81|58|1 1,0,0,0,0,0,0,0,0,0,0,0,0,0,0,1,
scooby_state_13b1543|21|1 1,0,0,0,0,0,0,0,0,0,0,0,0,0,0,1,
scooby_state_1669ed0|59|-3 1,0,0,0,0,0,0,0,0,0,0,0,0,0,0,1,
scooby_state_166a1ec|7|-6 1,0,0,0,0,0,0,0,0,0,0,0,0,0,0,1,
scooby_state_16260c8|3|-30 1,0,0,0,0,0,0,0,0,0,0,0,0,0,0,1,
scooby_state_13b0cdf|5|1 1,0,0,0,0,0,0,0,0,0,0,0,0,0,0,1,
scooby_state_1680117|3|1 1,0,0,0,0,0,0,0,0,0,0,0,0,0,0,1,
scooby_state_13b0bbb|6|3 1,0,0,0,0,0,0,0,0,0,0,0,0,0,0,1,
scooby_state_166a09f|2|0 1,0,0,0,0,0,0,0,0,0,0,0,0,0,0,1,
scooby_state_13afdc8|55|1 1,0,0,0,0,0,0,0,0,0,0,0,0,0,0,1,
scooby_state_1669f78|61|2 1,0,0,0,0,0,0,0,0,0,0,0,0,0,0,1,
scooby_state_166a38c|14|7 1,0,0,0,0,0,0,0,0,0,0,0,0,0,0,1,
scooby_state_1669fa0|62|5 1,0,0,0,0,0,0,0,0,0,0,0,0,0,0,1,
scooby_state_13b0e94|40|1 1,0,0,0,0,0,0,0,0,0,0,0,0,0,0,1,
scooby_state_1669dc1|55|1 1,0,0,0,0,0,0,0,0,0,0,0,0,0,0,1,
scooby_state_13af72f|35|-20 1,0,0,0,0,0,0,0,0,0,0,0,0,0,0,1,
scooby_state_1669c80|50|1 1,0,0,0,0,0,0,0,0,0,0,0,0,0,0,1,
scooby_state_1669c79|49|1 1,0,0,0,0,0,0,0,0,0,0,0,0,0,0,1,
scooby_state_1669c05|48|1 1,0,0,0,0,0,0,0,0,0,0,0,0,0,0,1,
scooby_state_1625b33|38|-3 1,0,0,0,0,0,0,0,0,0,0,0,0,0,0,1,
scooby_state_1680117|1|1 1,0,0,0,0,0,0,0,0,0,0,0,0,0,0,1,
scooby_state_13ac586|22|1 1,0,0,0,0,0,0,0,0,0,0,0,0,0,0,1,
scooby_state_13ac541|21|1 1,0,0,0,0,0,0,0,0,0,0,0,0,0,0,1,
scooby_state_13b1040|1|1 1,0,0,0,0,0,0,0,0,0,0,0,0,0,0,1,
scooby_state_13b0a95|43|1 1,0,0,0,0,0,0,0,0,0,0,0,0,0,0,1,
scooby_state_166a001|0|-18 1,0,0,0,0,0,0,0,0,0,0,0,0,0,0,1,
scooby_state_1669fc0|63|12 1,0,0,0,0,0,0,0,0,0,0,0,0,0,0,1,
scooby_state_166bd89|54|1 1,0,0,0,0,0,0,0,0,0,0,0,0,0,0,1,
scooby_state_13acccd|2|1 1,0,0,0,0,0,0,0,0,0,0,0,0,0,0,1,
scooby_state_166bd19|24|-2 1,0,0,0,0,0,0,0,0,0,0,0,0,0,0,1,
scooby_state_166a442|17|1 1,0,0,0,0,0,0,0,0,0,0,0,0,0,0,1,
scooby_state_13b0a95|50|1 1,0,0,0,0,0,0,0,0,0,0,0,0,0,0,1,
scooby_state_166a430|16|-42 1,0,0,0,0,0,0,0,0,0,0,0,0,0,0,1,
scooby_state_166a3c5|15|1 1,0,0,0,0,0,0,0,0,0,0,0,0,0,0,1,
scooby_state_13b0e94|58|1 1,0,0,0,0,0,0,0,0,0,0,0,0,0,0,1,
scooby_state_13ac600|61|1 1,0,0,0,0,0,0,0,0,0,0,0,0,0,0,1,
scooby_state_13ac7e0|31|30 1,0,0,0,0,0,0,0,0,0,0,0,0,0,0,1,
scooby_state_166c3a9|20|-28 1,0,0,0,0,0,0,0,0,0,0,0,0,0,0,1,
scooby_state_1680117|40|1 1,0,0,0,0,0,0,0,0,0,0,0,0,0,0,1,
scooby_state_13b2c7d|62|9 1,0,0,0,0,0,0,0,0,0,0,0,0,0,0,1,
scooby_state_13b0e94|34|1 1,0,0,0,0,0,0,0,0,0,0,0,0,0,0,1,
scooby_state_16800ed|39|1 1,0,0,0,0,0,0,0,0,0,0,0,0,0,0,1,
scooby_state_13b2a65|56|1 1,0,0,0,0,0,0,0,0,0,0,0,0,0,0,1,
scooby_state_13af948|37|1 1,0,0,0,0,0,0,0,0,0,0,0,0,0,0,1,
scooby_state_13b257b|9|0 1,0,0,0,0,0,0,0,0,0,0,0,0,0,0,1,
scooby_state_13b0ac1|43|1 1,0,0,0,0,0,0,0,0,0,0,0,0,0,0,1,
scooby_state_15f3be0|47|-5 1,0,0,0,0,0,0,0,0,0,0,0,0,0,0,1,
scooby_state_13af980|38|1 1,0,0,0,0,0,0,0,0,0,0,0,0,0,0,1,
scooby_state_13af75e|25|1 1,0,0,0,0,0,0,0,0,0,0,0,0,0,0,1,
scooby_state_13b0e82|58|1 1,0,0,0,0,0,0,0,0,0,0,0,0,0,0,1,
scooby_state_13b0a95|40|1 1,0,0,0,0,0,0,0,0,0,0,0,0,0,0,1,
scooby_state_13afd36|10|1 1,0,0,0,0,0,0,0,0,0,0,0,0,0,0,1,
scooby_state_13b0e94|29|1 1,0,0,0,0,0,0,0,0,0,0,0,0,0,0,1,
scooby_state_13ac600|60|1 1,0,0,0,0,0,0,0,0,0,0,0,0,0,0,1,
scooby_state_13ad0c7|3|1 1,0,0,0,0,0,0,0,0,0,0,0,0,0,0,1,
scooby_state_13ad36d|58|4 1,0,0,0,0,0,0,0,0,0,0,0,0,0,0,1,
scooby_state_13b0cdf|18|1 1,0,0,0,0,0,0,0,0,0,0,0,0,0,0,1,
scooby_state_13b2040|1|1 1,0,0,0,0,0,0,0,0,0,0,0,0,0,0,1,
scooby_state_13b30c2|3|1 1,0,0,0,0,0,0,0,0,0,0,0,0,0,0,1,
scooby_state_1625ac1|43|1 1,0,0,0,0,0,0,0,0,0,0,0,0,0,0,1,
scooby_state_13afd36|30|1 1,0,0,0,0,0,0,0,0,0,0,0,0,0,0,1,
scooby_state_13b0a95|58|1 1,0,0,0,0,0,0,0,0,0,0,0,0,0,0,1,
scooby_state_13ac3c1|15|1 1,0,0,0,0,0,0,0,0,0,0,0,0,0,0,1,
scooby_state_13b1f04|60|1 1,0,0,0,0,0,0,0,0,0,0,0,0,0,0,1,
scooby_state_166bd10|52|0 1,0,0,0,0,0,0,0,0,0,0,0,0,0,0,1,
scooby_state_13abc02|48|1 1,0,0,0,0,0,0,0,0,0,0,0,0,0,0,1,
scooby_state_13abb52|13|1 1,0,0,0,0,0,0,0,0,0,0,0,0,0,0,1,
scooby_state_166bd42|53|1 1,0,0,0,0,0,0,0,0,0,0,0,0,0,0,1,
scooby_state_1669bc0|47|38 1,0,0,0,0,0,0,0,0,0,0,0,0,0,0,1,
scooby_state_1625b33|35|-3 1,0,0,0,0,0,0,0,0,0,0,0,0,0,0,1,
scooby_state_13b0beb|63|1 1,0,0,0,0,0,0,0,0,0,0,0,0,0,0,1,
scooby_state_13b0cdf|17|1 1,0,0,0,0,0,0,0,0,0,0,0,0,0,0,1,
scooby_state_13b0cdf|1|1 1,0,0,0,0,0,0,0,0,0,0,0,0,0,0,1,
scooby_state_13b0bbb|12|3 1,0,0,0,0,0,0,0,0,0,0,0,0,0,0,1,
scooby_state_13acce6|32|3 1,0,0,0,0,0,0,0,0,0,0,0,0,0,0,1,
scooby_state_13b0c1e|51|3 1,0,0,0,0,0,0,0,0,0,0,0,0,0,0,1,
scooby_state_13b0e94|50|1 1,0,0,0,0,0,0,0,0,0,0,0,0,0,0,1,
scooby_state_13acccd|8|1 1,0,0,0,0,0,0,0,0,0,0,0,0,0,0,1,
scooby_state_13b0a95|45|1 1,0,0,0,0,0,0,0,0,0,0,0,0,0,0,1,
scooby_state_13acccd|6|1 1,0,0,0,0,0,0,0,0,0,0,0,0,0,0,1,
scooby_state_1625b33|40|3 1,0,0,0,0,0,0,0,0,0,0,0,0,0,0,1,
scooby_state_13acce6|21|3 1,0,0,0,0,0,0,0,0,0,0,0,0,0,0,1,
scooby_state_1625b33|37|-4 1,0,0,0,0,0,0,0,0,0,0,0,0,0,0,1,
scooby_state_13acccd|5|1 1,0,0,0,0,0,0,0,0,0,0,0,0,0,0,1,
scooby_state_168010f|57|1 1,0,0,0,0,0,0,0,0,0,0,0,0,0,0,1,
scooby_state_13afbb1|35|-23 1,0,0,0,0,0,0,0,0,0,0,0,0,0,0,1,
scooby_state_13af75e|15|1 1,0,0,0,0,0,0,0,0,0,0,0,0,0,0,1,
scooby_state_16800e5|17|1 1,0,0,0,0,0,0,0,0,0,0,0,0,0,0,1,
scooby_state_13afd36|23|1 1,0,0,0,0,0,0,0,0,0,0,0,0,0,0,1,
scooby_state_13afd36|22|1 1,0,0,0,0,0,0,0,0,0,0,0,0,0,0,1,
scooby_state_13afd36|21|1 1,0,0,0,0,0,0,0,0,0,0,0,0,0,0,1,
scooby_state_13af75e|29|1 1,0,0,0,0,0,0,0,0,0,0,0,0,0,0,1,
scooby_state_13b0e94|41|1 1,0,0,0,0,0,0,0,0,0,0,0,0,0,0,1,
scooby_state_13b0beb|57|3 1,0,0,0,0,0,0,0,0,0,0,0,0,0,0,1,
scooby_state_13ad275|24|-5 1,0,0,0,0,0,0,0,0,0,0,0,0,0,0,1,
scooby_state_168010f|56|1 1,0,0,0,0,0,0,0,0,0,0,0,0,0,0,1,
scooby_state_13b0a95|47|1 1,0,0,0,0,0,0,0,0,0,0,0,0,0,0,1,
scooby_state_13b1902|36|1 1,0,0,0,0,0,0,0,0,0,0,0,0,0,0,1,
scooby_state_13b0a95|52|1 1,0,0,0,0,0,0,0,0,0,0,0,0,0,0,1,
scooby_state_13b0cdf|4|1 1,0,0,0,0,0,0,0,0,0,0,0,0,0,0,1,
scooby_state_13b0beb|1|1 1,0,0,0,0,0,0,0,0,0,0,0,0,0,0,1,
scooby_state_13b1a03|40|1 1,0,0,0,0,0,0,0,0,0,0,0,0,0,0,1,
scooby_state_13b0c1e|54|1 1,0,0,0,0,0,0,0,0,0,0,0,0,0,0,1,
scooby_state_13b2a51|55|3 1,0,0,0,0,0,0,0,0,0,0,0,0,0,0,1,
scooby_state_1680117|2|1 1,0,0,0,0,0,0,0,0,0,0,0,0,0,0,1,
scooby_state_1669e0e|56|1 1,0,0,0,0,0,0,0,0,0,0,0,0,0,0,1,
scooby_state_13b2382|14|1 1,0,0,0,0,0,0,0,0,0,0,0,0,0,0,1,
scooby_state_13afd36|19|1 1,0,0,0,0,0,0,0,0,0,0,0,0,0,0,1,
scooby_state_1625b33|38|-2 1,0,0,0,0,0,0,0,0,0,0,0,0,0,0,1,
scooby_state_13afd36|18|1 1,0,0,0,0,0,0,0,0,0,0,0,0,0,0,1,
scooby_state_13afd27|41|6 1,0,0,0,0,0,0,0,0,0,0,0,0,0,0,1,
scooby_state_13afd36|16|1 1,0,0,0,0,0,0,0,0,0,0,0,0,0,0,1,
scooby_state_16800b0|6|0 1,0,0,0,0,0,0,0,0,0,0,0,0,0,0,1,
scooby_state_13afd36|15|1 1,0,0,0,0,0,0,0,0,0,0,0,0,0,0,1,
scooby_state_13af75e|24|1 1,0,0,0,0,0,0,0,0,0,0,0,0,0,0,1,
scooby_state_13b0e94|38|1 1,0,0,0,0,0,0,0,0,0,0,0,0,0,0,1,
scooby_state_13b0e94|37|1 1,0,0,0,0,0,0,0,0,0,0,0,0,0,0,1,
scooby_state_13b0beb|0|0 1,0,0,0,0,0,0,0,0,0,0,0,0,0,0,1,
scooby_state_13afa01|40|1 1,0,0,0,0,0,0,0,0,0,0,0,0,0,0,1,
scooby_state_15f2550|13|0 1,0,0,0,0,0,0,0,0,0,0,0,0,0,0,1,
scooby_state_13afbca|0|0 1,0,0,0,0,0,0,0,0,0,0,0,0,0,0,1,
scooby_state_13b0e24|56|-7 1,0,0,0,0,0,0,0,0,0,0,0,0,0,0,1,
scooby_state_1668901|36|1 1,0,0,0,0,0,0,0,0,0,0,0,0,0,0,1,
scooby_state_13ad000|0|0 1,0,0,0,0,0,0,0,0,0,0,0,0,0,0,1,
scooby_state_13b0c1e|6|1 1,0,0,0,0,0,0,0,0,0,0,0,0,0,0,1,
scooby_state_13ace37|44|-1 1,0,0,0,0,0,0,0,0,0,0,0,0,0,0,1,
scooby_state_13b2c7d|62|1 1,0,0,0,0,0,0,0,0,0,0,0,0,0,0,1,
scooby_state_13ac600|6|1 1,0,0,0,0,0,0,0,0,0,0,0,0,0,0,1,
scooby_state_13ac600|7|1 1,0,0,0,0,0,0,0,0,0,0,0,0,0,0,1,
scooby_state_13ac600|9|1 1,0,0,0,0,0,0,0,0,0,0,0,0,0,0,1,
scooby_state_1669e40|57|1 1,0,0,0,0,0,0,0,0,0,0,0,0,0,0,1,
scooby_state_13ac600|10|1 1,0,0,0,0,0,0,0,0,0,0,0,0,0,0,1,
scooby_state_16800b0|53|1 1,0,0,0,0,0,0,0,0,0,0,0,0,0,0,1,
scooby_state_13b0e94|42|1 1,0,0,0,0,0,0,0,0,0,0,0,0,0,0,1,
scooby_state_13afbc6|47|-8 1,0,0,0,0,0,0,0,0,0,0,0,0,0,0,1,
scooby_state_13ac444|17|1 1,0,0,0,0,0,0,0,0,0,0,0,0,0,0,1,
scooby_state_13af75e|32|1 1,0,0,0,0,0,0,0,0,0,0,0,0,0,0,1,
scooby_state_1680117|39|1 1,0,0,0,0,0,0,0,0,0,0,0,0,0,0,1,
scooby_state_13b0cdf|63|1 1,0,0,0,0,0,0,0,0,0,0,0,0,0,0,1,
scooby_state_13afd36|29|1 1,0,0,0,0,0,0,0,0,0,0,0,0,0,0,1,
scooby_state_13afd36|28|1 1,0,0,0,0,0,0,0,0,0,0,0,0,0,0,1,
scooby_state_13afd36|27|1 1,0,0,0,0,0,0,0,0,0,0,0,0,0,0,1,
scooby_state_13af72f|35|0 1,0,0,0,0,0,0,0,0,0,0,0,0,0,0,1,
scooby_state_13af75e|35|1 1,0,0,0,0,0,0,0,0,0,0,0,0,0,0,1,
scooby_state_13af75e|34|1 1,0,0,0,0,0,0,0,0,0,0,0,0,0,0,1,
scooby_state_16800e5|18|1 1,0,0,0,0,0,0,0,0,0,0,0,0,0,0,1,
scooby_state_13b0e94|47|1 1,0,0,0,0,0,0,0,0,0,0,0,0,0,0,1,
scooby_state_13b07c2|31|1 1,0,0,0,0,0,0,0,0,0,0,0,0,0,0,1,
scooby_state_15f2536|30|11 1,0,0,0,0,0,0,0,0,0,0,0,0,0,0,1,
scooby_state_13b0cdf|10|1 1,0,0,0,0,0,0,0,0,0,0,0,0,0,0,1,
scooby_state_166a0c1|3|1 1,0,0,0,0,0,0,0,0,0,0,0,0,0,0,1,
scooby_state_13b0cdf|8|1 1,0,0,0,0,0,0,0,0,0,0,0,0,0,0,1,
scooby_state_13b0bbb|19|1 1,0,0,0,0,0,0,0,0,0,0,0,0,0,0,1,
scooby_state_13b0c1e|58|1 1,0,0,0,0,0,0,0,0,0,0,0,0,0,0,1,
scooby_state_16800e5|20|1 1,0,0,0,0,0,0,0,0,0,0,0,0,0,0,1,
scooby_state_16800e5|21|1 1,0,0,0,0,0,0,0,0,0,0,0,0,0,0,1,
scooby_state_13b2990|59|24 1,0,0,0,0,0,0,0,0,0,0,0,0,0,0,1,
scooby_state_13ac600|19|1 1,0,0,0,0,0,0,0,0,0,0,0,0,0,0,1,
scooby_state_13ac600|20|1 1,0,0,0,0,0,0,0,0,0,0,0,0,0,0,1,
scooby_state_16800e5|3|1 1,0,0,0,0,0,0,0,0,0,0,0,0,0,0,1,
scooby_state_16800e5|4|1 1,0,0,0,0,0,0,0,0,0,0,0,0,0,0,1,
scooby_state_13b0f42|61|1 1,0,0,0,0,0,0,0,0,0,0,0,0,0,0,1,
scooby_state_13acccd|17|1 1,0,0,0,0,0,0,0,0,0,0,0,0,0,0,1,
scooby_state_13acce6|33|1 1,0,0,0,0,0,0,0,0,0,0,0,0,0,0,1,
scooby_state_13af72f|36|5 1,0,0,0,0,0,0,0,0,0,0,0,0,0,0,1,
scooby_state_13acccd|19|1 1,0,0,0,0,0,0,0,0,0,0,0,0,0,0,1,
scooby_state_13acccd|20|1 1,0,0,0,0,0,0,0,0,0,0,0,0,0,0,1,
scooby_state_13abb47|28|1 1,0,0,0,0,0,0,0,0,0,0,0,0,0,0,1,
scooby_state_13b09a5|19|-5 1,0,0,0,0,0,0,0,0,0,0,0,0,0,0,1,
scooby_state_16800ed|20|1 1,0,0,0,0,0,0,0,0,0,0,0,0,0,0,1,
scooby_state_16800b0|58|1 1,0,0,0,0,0,0,0,0,0,0,0,0,0,0,1,
scooby_state_13afd99|36|1 1,0,0,0,0,0,0,0,0,0,0,0,0,0,0,1,
scooby_state_13ac600|15|1 1,0,0,0,0,0,0,0,0,0,0,0,0,0,0,1,
scooby_state_13b0cdf|21|1 1,0,0,0,0,0,0,0,0,0,0,0,0,0,0,1,
scooby_state_13ac600|14|1 1,0,0,0,0,0,0,0,0,0,0,0,0,0,0,1,
scooby_state_1680117|26|1 1,0,0,0,0,0,0,0,0,0,0,0,0,0,0,1,
scooby_state_13ac600|11|1 1,0,0,0,0,0,0,0,0,0,0,0,0,0,0,1,
scooby_state_1680117|46|1 1,0,0,0,0,0,0,0,0,0,0,0,0,0,0,1,
scooby_state_13acce6|26|3 1,0,0,0,0,0,0,0,0,0,0,0,0,0,0,1,
scooby_state_13b16c8|27|1 1,0,0,0,0,0,0,0,0,0,0,0,0,0,0,1,
scooby_state_16800e5|63|1 1,0,0,0,0,0,0,0,0,0,0,0,0,0,0,1,
scooby_state_13ac301|12|1 1,0,0,0,0,0,0,0,0,0,0,0,0,0,0,1,
scooby_state_16800b0|61|0 1,0,0,0,0,0,0,0,0,0,0,0,0,0,0,1,
scooby_state_1680117|22|1 1,0,0,0,0,0,0,0,0,0,0,0,0,0,0,1,
scooby_state_13b0e94|35|1 1,0,0,0,0,0,0,0,0,0,0,0,0,0,0,1,
scooby_state_166c3a9|20|-21 1,0,0,0,0,0,0,0,0,0,0,0,0,0,0,1,
scooby_state_13ac680|16|1 1,0,0,0,0,0,0,0,0,0,0,0,0,0,0,1,
scooby_state_13b0e94|26|0 1,0,0,0,0,0,0,0,0,0,0,0,0,0,0,1,
scooby_state_13acccd|11|1 1,0,0,0,0,0,0,0,0,0,0,0,0,0,0,1,
scooby_state_13b0bbb|25|1 1,0,0,0,0,0,0,0,0,0,0,0,0,0,0,1,
scooby_state_1680117|41|1 1,0,0,0,0,0,0,0,0,0,0,0,0,0,0,1,
scooby_state_13b0beb|58|1 1,0,0,0,0,0,0,0,0,0,0,0,0,0,0,1,
scooby_state_13acce6|27|1 1,0,0,0,0,0,0,0,0,0,0,0,0,0,0,1,
scooby_state_13acce6|29|1 1,0,0,0,0,0,0,0,0,0,0,0,0,0,0,1,
scooby_state_13b0a95|48|1 1,0,0,0,0,0,0,0,0,0,0,0,0,0,0,1,
scooby_state_13af75e|20|1 1,0,0,0,0,0,0,0,0,0,0,0,0,0,0,1,
scooby_state_13b0bbb|17|3 1,0,0,0,0,0,0,0,0,0,0,0,0,0,0,1,
scooby_state_13b0c1e|56|2 1,0,0,0,0,0,0,0,0,0,0,0,0,0,0,1,
scooby_state_13ac600|22|1 1,0,0,0,0,0,0,0,0,0,0,0,0,0,0,1,
scooby_state_13b0a95|49|1 1,0,0,0,0,0,0,0,0,0,0,0,0,0,0,1,
scooby_state_13b0bbb|18|1 1,0,0,0,0,0,0,0,0,0,0,0,0,0,0,1,
scooby_state_13b0cdf|7|1 1,0,0,0,0,0,0,0,0,0,0,0,0,0,0,1,
scooby_state_13b2990|59|5 1,0,0,0,0,0,0,0,0,0,0,0,0,0,0,1,
scooby_state_13af75e|30|1 1,0,0,0,0,0,0,0,0,0,0,0,0,0,0,1,
scooby_state_13b0cdf|56|1 1,0,0,0,0,0,0,0,0,0,0,0,0,0,0,1,
scooby_state_13b0bbb|3|1 1,0,0,0,0,0,0,0,0,0,0,0,0,0,0,1,
scooby_state_13b0beb|53|1 1,0,0,0,0,0,0,0,0,0,0,0,0,0,0,1,
scooby_state_13b0cdf|55|1 1,0,0,0,0,0,0,0,0,0,0,0,0,0,0,1,
scooby_state_13b0f80|62|1 1,0,0,0,0,0,0,0,0,0,0,0,0,0,0,1,
scooby_state_13ac12e|32|0 1,0,0,0,0,0,0,0,0,0,0,0,0,0,0,1,
scooby_state_13ac600|62|1 1,0,0,0,0,0,0,0,0,0,0,0,0,0,0,1,
scooby_state_1680117|20|1 1,0,0,0,0,0,0,0,0,0,0,0,0,0,0,1,
scooby_state_13b0084|31|-3 1,0,0,0,0,0,0,0,0,0,0,0,0,0,0,1,
scooby_state_13b0cdf|54|0 1,0,0,0,0,0,0,0,0,0,0,0,0,0,0,1,
scooby_state_13b0d04|52|1 1,0,0,0,0,0,0,0,0,0,0,0,0,0,0,1,
scooby_state_13b0cc2|51|1 1,0,0,0,0,0,0,0,0,0,0,0,0,0,0,1,
scooby_state_13b1008|0|0 1,0,0,0,0,0,0,0,0,0,0,0,0,0,0,1,
scooby_state_13ad202|23|0 1,0,0,0,0,0,0,0,0,0,0,0,0,0,0,1,
scooby_state_13b0c46|49|1 1,0,0,0,0,0,0,0,0,0,0,0,0,0,0,1,
scooby_state_13b0dc2|55|1 1,0,0,0,0,0,0,0,0,0,0,0,0,0,0,1,
scooby_state_13b0003|0|-59 1,0,0,0,0,0,0,0,0,0,0,0,0,0,0,1,
scooby_state_13afd36|20|0 1,0,0,0,0,0,0,0,0,0,0,0,0,0,0,1,
scooby_state_166c3a9|55|19 1,0,0,0,0,0,0,0,0,0,0,0,0,0,0,1,
scooby_state_13b2005|0|0 1,0,0,0,0,0,0,0,0,0,0,0,0,0,0,1,
scooby_state_13b20c2|3|-60 1,0,0,0,0,0,0,0,0,0,0,0,0,0,0,1,
scooby_state_13b0e82|58|3 1,0,0,0,0,0,0,0,0,0,0,0,0,0,0,1,
scooby_state_13b0e94|49|1 1,0,0,0,0,0,0,0,0,0,0,0,0,0,0,1,
scooby_state_13ac0ba|2|-8 1,0,0,0,0,0,0,0,0,0,0,0,0,0,0,1,
scooby_state_15f3d00|52|9 1,0,0,0,0,0,0,0,0,0,0,0,0,0,0,1,
scooby_state_13acccd|16|1 1,0,0,0,0,0,0,0,0,0,0,0,0,0,0,1,
scooby_state_13b0cdf|57|1 1,0,0,0,0,0,0,0,0,0,0,0,0,0,0,1,
scooby_state_13abcc4|51|1 1,0,0,0,0,0,0,0,0,0,0,0,0,0,0,1,
scooby_state_13b2f42|61|1 1,0,0,0,0,0,0,0,0,0,0,0,0,0,0,1,
scooby_state_13b0c1e|43|1 1,0,0,0,0,0,0,0,0,0,0,0,0,0,0,1,
scooby_state_1668b90|46|14 1,0,0,0,0,0,0,0,0,0,0,0,0,0,0,1,
scooby_state_13b0beb|54|1 1,0,0,0,0,0,0,0,0,0,0,0,0,0,0,1,
scooby_state_13b0742|29|1 1,0,0,0,0,0,0,0,0,0,0,0,0,0,0,1,
scooby_state_13ad1a6|59|24 1,0,0,0,0,0,0,0,0,0,0,0,0,0,0,1,
scooby_state_13ac003|0|-8 1,0,0,0,0,0,0,0,0,0,0,0,0,0,0,1,
scooby_state_13b08c3|35|1 1,0,0,0,0,0,0,0,0,0,0,0,0,0,0,1,
scooby_state_13b0886|34|1 1,0,0,0,0,0,0,0,0,0,0,0,0,0,0,1,
scooby_state_13b0384|14|1 1,0,0,0,0,0,0,0,0,0,0,0,0,0,0,1,
scooby_state_16800e5|39|1 1,0,0,0,0,0,0,0,0,0,0,0,0,0,0,1,
scooby_state_13b0803|32|1 1,0,0,0,0,0,0,0,0,0,0,0,0,0,0,1,
scooby_state_13b1ec1|59|1 1,0,0,0,0,0,0,0,0,0,0,0,0,0,0,1,
scooby_state_1625b33|35|2 1,0,0,0,0,0,0,0,0,0,0,0,0,0,0,1,
scooby_state_13b0700|28|1 1,0,0,0,0,0,0,0,0,0,0,0,0,0,0,1,
scooby_state_13ac0ba|4|-15 1,0,0,0,0,0,0,0,0,0,0,0,0,0,0,1,
scooby_state_13b06c4|27|1 1,0,0,0,0,0,0,0,0,0,0,0,0,0,0,1,
scooby_state_13b0beb|4|3 1,0,0,0,0,0,0,0,0,0,0,0,0,0,0,1,
scooby_state_13af75e|42|1 1,0,0,0,0,0,0,0,0,0,0,0,0,0,0,1,
scooby_state_13b0681|26|1 1,0,0,0,0,0,0,0,0,0,0,0,0,0,0,1,
scooby_state_13b0c80|50|1 1,0,0,0,0,0,0,0,0,0,0,0,0,0,0,1,
scooby_state_13b0e94|31|1 1,0,0,0,0,0,0,0,0,0,0,0,0,0,0,1,
scooby_state_13afd99|33|0 1,0,0,0,0,0,0,0,0,0,0,0,0,0,0,1,
scooby_state_13b0902|36|1 1,0,0,0,0,0,0,0,0,0,0,0,0,0,0,1,
scooby_state_1625b33|36|-5 1,0,0,0,0,0,0,0,0,0,0,0,0,0,0,1,
scooby_state_13b09c7|39|1 1,0,0,0,0,0,0,0,0,0,0,0,0,0,0,1,
scooby_state_13af75e|27|1 1,0,0,0,0,0,0,0,0,0,0,0,0,0,0,1,
scooby_state_13b0a86|42|1 1,0,0,0,0,0,0,0,0,0,0,0,0,0,0,1,
scooby_state_13acf90|24|-11 1,0,0,0,0,0,0,0,0,0,0,0,0,0,0,1,
scooby_state_13b0a95|32|1 1,0,0,0,0,0,0,0,0,0,0,0,0,0,0,1,
scooby_state_13acce6|34|1 1,0,0,0,0,0,0,0,0,0,0,0,0,0,0,1,
scooby_state_13b0b85|46|1 1,0,0,0,0,0,0,0,0,0,0,0,0,0,0,1,
scooby_state_166a341|13|1 1,0,0,0,0,0,0,0,0,0,0,0,0,0,0,1,
scooby_state_13b0beb|15|1 1,0,0,0,0,0,0,0,0,0,0,0,0,0,0,1,
scooby_state_13b0c04|48|1 1,0,0,0,0,0,0,0,0,0,0,0,0,0,0,1,
scooby_state_15f2680|26|6 1,0,0,0,0,0,0,0,0,0,0,0,0,0,0,1,
scooby_state_13b0beb|52|0 1,0,0,0,0,0,0,0,0,0,0,0,0,0,0,1,
scooby_state_1680117|50|1 1,0,0,0,0,0,0,0,0,0,0,0,0,0,0,1,
scooby_state_13acccd|3|1 1,0,0,0,0,0,0,0,0,0,0,0,0,0,0,1,
scooby_state_13acce6|18|1 1,0,0,0,0,0,0,0,0,0,0,0,0,0,0,1,
scooby_state_13acccd|1|1 1,0,0,0,0,0,0,0,0,0,0,0,0,0,0,1,
scooby_state_13b2eac|52|-6 1,0,0,0,0,0,0,0,0,0,0,0,0,0,0,1,
scooby_state_13b1742|29|1 1,0,0,0,0,0,0,0,0,0,0,0,0,0,0,1,
scooby_state_13acce6|16|3 1,0,0,0,0,0,0,0,0,0,0,0,0,0,0,1,
scooby_state_1680117|52|1 1,0,0,0,0,0,0,0,0,0,0,0,0,0,0,1,
scooby_state_1680117|51|1 1,0,0,0,0,0,0,0,0,0,0,0,0,0,0,1,
scooby_state_1626603|24|-7 1,0,0,0,0,0,0,0,0,0,0,0,0,0,0,1,
scooby_state_13b09a5|19|1 1,0,0,0,0,0,0,0,0,0,0,0,0,0,0,1,
scooby_state_166874b|11|0 1,0,0,0,0,0,0,0,0,0,0,0,0,0,0,1,
scooby_state_1680117|49|1 1,0,0,0,0,0,0,0,0,0,0,0,0,0,0,1,
scooby_state_13ac2a5|10|3 1,0,0,0,0,0,0,0,0,0,0,0,0,0,0,1,
scooby_state_13b2404|16|1 1,0,0,0,0,0,0,0,0,0,0,0,0,0,0,1,
scooby_state_13ac600|5|1 1,0,0,0,0,0,0,0,0,0,0,0,0,0,0,1,
scooby_state_13b1884|34|1 1,0,0,0,0,0,0,0,0,0,0,0,0,0,0,1,
scooby_state_13ac600|4|1 1,0,0,0,0,0,0,0,0,0,0,0,0,0,0,1,
scooby_state_13b0a95|37|1 1,0,0,0,0,0,0,0,0,0,0,0,0,0,0,1,
scooby_state_13b0c1e|46|3 1,0,0,0,0,0,0,0,0,0,0,0,0,0,0,1,
scooby_state_16800e2|60|1 1,0,0,0,0,0,0,0,0,0,0,0,0,0,0,1,
scooby_state_13b0cdf|59|1 1,0,0,0,0,0,0,0,0,0,0,0,0,0,0,1,
scooby_state_13b0781|30|1 1,0,0,0,0,0,0,0,0,0,0,0,0,0,0,1,
scooby_state_13b0a95|38|1 1,0,0,0,0,0,0,0,0,0,0,0,0,0,0,1,
scooby_state_13b0bbb|7|1 1,0,0,0,0,0,0,0,0,0,0,0,0,0,0,1,
scooby_state_13b0a95|39|1 1,0,0,0,0,0,0,0,0,0,0,0,0,0,0,1,
scooby_state_13b0cdf|61|1 1,0,0,0,0,0,0,0,0,0,0,0,0,0,0,1,
scooby_state_13b0c1e|48|1 1,0,0,0,0,0,0,0,0,0,0,0,0,0,0,1,
scooby_state_13b2b01|44|1 1,0,0,0,0,0,0,0,0,0,0,0,0,0,0,1,
scooby_state_13acccd|13|1 1,0,0,0,0,0,0,0,0,0,0,0,0,0,0,1,
scooby_state_13ac600|2|1 1,0,0,0,0,0,0,0,0,0,0,0,0,0,0,1,
scooby_state_13b0a95|42|1 1,0,0,0,0,0,0,0,0,0,0,0,0,0,0,1,
scooby_state_13b0cdf|0|0 1,0,0,0,0,0,0,0,0,0,0,0,0,0,0,1,
scooby_state_13af75e|21|1 1,0,0,0,0,0,0,0,0,0,0,0,0,0,0,1,
scooby_state_16800b0|23|0 1,0,0,0,0,0,0,0,0,0,0,0,0,0,0,1,
scooby_state_1680117|45|1 1,0,0,0,0,0,0,0,0,0,0,0,0,0,0,1,
scooby_state_1668bc1|47|-3 1,0,0,0,0,0,0,0,0,0,0,0,0,0,0,1,
scooby_state_13ad288|10|1 1,0,0,0,0,0,0,0,0,0,0,0,0,0,0,1,
scooby_state_13afd36|26|1 1,0,0,0,0,0,0,0,0,0,0,0,0,0,0,1,
scooby_state_13af780|30|1 1,0,0,0,0,0,0,0,0,0,0,0,0,0,0,1,
scooby_state_166c390|6|-4 1,0,0,0,0,0,0,0,0,0,0,0,0,0,0,1,
scooby_state_13b0e76|34|11 1,0,0,0,0,0,0,0,0,0,0,0,0,0,0,1,
scooby_state_16800e5|24|1 1,0,0,0,0,0,0,0,0,0,0,0,0,0,0,1,
scooby_state_13aca43|41|1 1,0,0,0,0,0,0,0,0,0,0,0,0,0,0,1,
scooby_state_13b0f0d|32|-2 1,0,0,0,0,0,0,0,0,0,0,0,0,0,0,1,
scooby_state_13af75e|18|1 1,0,0,0,0,0,0,0,0,0,0,0,0,0,0,1,
scooby_state_13b0a00|40|1 1,0,0,0,0,0,0,0,0,0,0,0,0,0,0,1,
scooby_state_13af75e|17|1 1,0,0,0,0,0,0,0,0,0,0,0,0,0,0,1,
scooby_state_13afd36|24|1 1,0,0,0,0,0,0,0,0,0,0,0,0,0,0,1,
scooby_state_1680117|48|1 1,0,0,0,0,0,0,0,0,0,0,0,0,0,0,1,
scooby_state_13b0607|24|1 1,0,0,0,0,0,0,0,0,0,0,0,0,0,0,1,
scooby_state_13ad0fd|37|12 1,0,0,0,0,0,0,0,0,0,0,0,0,0,0,1,
scooby_state_16800e5|25|1 1,0,0,0,0,0,0,0,0,0,0,0,0,0,0,1,
scooby_state_16800e5|27|1 1,0,0,0,0,0,0,0,0,0,0,0,0,0,0,1,
scooby_state_13b0beb|5|1 1,0,0,0,0,0,0,0,0,0,0,0,0,0,0,1,
scooby_state_13ace47|39|-5 1,0,0,0,0,0,0,0,0,0,0,0,0,0,0,1,
scooby_state_13ac600|18|1 1,0,0,0,0,0,0,0,0,0,0,0,0,0,0,1,
scooby_state_13b0240|9|1 1,0,0,0,0,0,0,0,0,0,0,0,0,0,0,1,
scooby_state_16800ed|8|1 1,0,0,0,0,0,0,0,0,0,0,0,0,0,0,1,
scooby_state_13b2b6d|54|-1 1,0,0,0,0,0,0,0,0,0,0,0,0,0,0,1,
scooby_state_1668c68|49|11 1,0,0,0,0,0,0,0,0,0,0,0,0,0,0,1,
scooby_state_1626551|44|1 1,0,0,0,0,0,0,0,0,0,0,0,0,0,0,1,
scooby_state_13b0a95|33|1 1,0,0,0,0,0,0,0,0,0,0,0,0,0,0,1,
scooby_state_13ac600|1|1 1,0,0,0,0,0,0,0,0,0,0,0,0,0,0,1,
scooby_state_13b0e6c|57|0 1,0,0,0,0,0,0,0,0,0,0,0,0,0,0,1,
scooby_state_13b0e94|45|1 1,0,0,0,0,0,0,0,0,0,0,0,0,0,0,1,
scooby_state_13af72f|35|5 1,0,0,0,0,0,0,0,0,0,0,0,0,0,0,1,
scooby_state_13af75e|23|1 1,0,0,0,0,0,0,0,0,0,0,0,0,0,0,1,
scooby_state_13acccd|60|1 1,0,0,0,0,0,0,0,0,0,0,0,0,0,0,1,
scooby_state_13af848|57|1 1,0,0,0,0,0,0,0,0,0,0,0,0,0,0,1,
scooby_state_13b1941|37|1 1,0,0,0,0,0,0,0,0,0,0,0,0,0,0,1,
scooby_state_13ad1a6|61|24 1,0,0,0,0,0,0,0,0,0,0,0,0,0,0,1,
scooby_state_13b0d0d|35|-16 1,0,0,0,0,0,0,0,0,0,0,0,0,0,0,1,
scooby_state_13afd36|7|1 1,0,0,0,0,0,0,0,0,0,0,0,0,0,0,1,
scooby_state_13af721|30|-4 1,0,0,0,0,0,0,0,0,0,0,0,0,0,0,1,
scooby_state_13af807|38|-23 1,0,0,0,0,0,0,0,0,0,0,0,0,0,0,1,
scooby_state_13af812|9|1 1,0,0,0,0,0,0,0,0,0,0,0,0,0,0,1,
scooby_state_13af72f|33|5 1,0,0,0,0,0,0,0,0,0,0,0,0,0,0,1,
scooby_state_13acccd|21|1 1,0,0,0,0,0,0,0,0,0,0,0,0,0,0,1,
scooby_state_13ad1a6|62|24 1,0,0,0,0,0,0,0,0,0,0,0,0,0,0,1,
scooby_state_13af6ea|5|1 1,0,0,0,0,0,0,0,0,0,0,0,0,0,0,1,
scooby_state_1680117|29|1 1,0,0,0,0,0,0,0,0,0,0,0,0,0,0,1,
scooby_state_15f3d00|52|1 1,0,0,0,0,0,0,0,0,0,0,0,0,0,0,1,
scooby_state_13af978|40|3 1,0,0,0,0,0,0,0,0,0,0,0,0,0,0,1,
scooby_state_13af848|56|1 1,0,0,0,0,0,0,0,0,0,0,0,0,0,0,1,
scooby_state_13b0cdf|6|1 1,0,0,0,0,0,0,0,0,0,0,0,0,0,0,1,
scooby_state_13b2840|46|-5 1,0,0,0,0,0,0,0,0,0,0,0,0,0,0,1,
scooby_state_1668907|23|0 1,0,0,0,0,0,0,0,0,0,0,0,0,0,0,1,
scooby_state_13af807|36|-23 1,0,0,0,0,0,0,0,0,0,0,0,0,0,0,1,
scooby_state_13af75e|13|1 1,0,0,0,0,0,0,0,0,0,0,0,0,0,0,1,
scooby_state_13afd27|52|-11 1,0,0,0,0,0,0,0,0,0,0,0,0,0,0,1,
scooby_state_13afad1|36|-4 1,0,0,0,0,0,0,0,0,0,0,0,0,0,0,1,
scooby_state_13af812|7|1 1,0,0,0,0,0,0,0,0,0,0,0,0,0,0,1,
scooby_state_13ace47|57|1 1,0,0,0,0,0,0,0,0,0,0,0,0,0,0,1,
scooby_state_13af721|29|-4 1,0,0,0,0,0,0,0,0,0,0,0,0,0,0,1,
scooby_state_13af6ea|3|1 1,0,0,0,0,0,0,0,0,0,0,0,0,0,0,1,
scooby_state_13ac381|14|-49 1,0,0,0,0,0,0,0,0,0,0,0,0,0,0,1,
scooby_state_13af72f|34|5 1,0,0,0,0,0,0,0,0,0,0,0,0,0,0,1,
scooby_state_13b2180|6|1 1,0,0,0,0,0,0,0,0,0,0,0,0,0,0,1,
scooby_state_16688f0|35|1 1,0,0,0,0,0,0,0,0,0,0,0,0,0,0,1,
scooby_state_13b0a95|46|1 1,0,0,0,0,0,0,0,0,0,0,0,0,0,0,1,
scooby_state_13af75e|14|1 1,0,0,0,0,0,0,0,0,0,0,0,0,0,0,1,
scooby_state_13afd27|43|1 1,0,0,0,0,0,0,0,0,0,0,0,0,0,0,1,
scooby_state_13afd27|40|-23 1,0,0,0,0,0,0,0,0,0,0,0,0,0,0,1,
scooby_state_13afd99|34|1 1,0,0,0,0,0,0,0,0,0,0,0,0,0,0,1,
scooby_state_13afd36|6|1 1,0,0,0,0,0,0,0,0,0,0,0,0,0,0,1,
scooby_state_13abba0|26|22 1,0,0,0,0,0,0,0,0,0,0,0,0,0,0,1,
scooby_state_13afd27|41|1 1,0,0,0,0,0,0,0,0,0,0,0,0,0,0,1,
scooby_state_13ac600|3|1 1,0,0,0,0,0,0,0,0,0,0,0,0,0,0,1,
scooby_state_13afd99|37|1 1,0,0,0,0,0,0,0,0,0,0,0,0,0,0,1,
scooby_state_13ac600|25|1 1,0,0,0,0,0,0,0,0,0,0,0,0,0,0,1,
scooby_state_1625f60|30|0 1,0,0,0,0,0,0,0,0,0,0,0,0,0,0,1,
scooby_state_13af75e|22|1 1,0,0,0,0,0,0,0,0,0,0,0,0,0,0,1,
scooby_state_13afd27|44|1 1,0,0,0,0,0,0,0,0,0,0,0,0,0,0,1,
scooby_state_13affc6|63|1 1,0,0,0,0,0,0,0,0,0,0,0,0,0,0,1,
scooby_state_13b0080|2|1 1,0,0,0,0,0,0,0,0,0,0,0,0,0,0,1,
scooby_state_13b0084|5|-5 1,0,0,0,0,0,0,0,0,0,0,0,0,0,0,1,
scooby_state_13acccd|0|0 1,0,0,0,0,0,0,0,0,0,0,0,0,0,0,1,
scooby_state_13afd36|34|1 1,0,0,0,0,0,0,0,0,0,0,0,0,0,0,1,
scooby_state_13afb86|46|1 1,0,0,0,0,0,0,0,0,0,0,0,0,0,0,1,
scooby_state_13b285c|47|1 1,0,0,0,0,0,0,0,0,0,0,0,0,0,0,1,
scooby_state_13af98d|61|0 1,0,0,0,0,0,0,0,0,0,0,0,0,0,0,1,
scooby_state_13ac600|12|1 1,0,0,0,0,0,0,0,0,0,0,0,0,0,0,1,
scooby_state_1674400|16|0 1,0,0,0,0,0,0,0,0,0,0,0,0,0,0,1,
scooby_state_13b2a51|55|-2 1,0,0,0,0,0,0,0,0,0,0,0,0,0,0,1,
scooby_state_13b2902|36|1 1,0,0,0,0,0,0,0,0,0,0,0,0,0,0,1,
scooby_state_16266c1|27|1 1,0,0,0,0,0,0,0,0,0,0,0,0,0,0,1,
scooby_state_166a33f|12|8 1,0,0,0,0,0,0,0,0,0,0,0,0,0,0,1,
scooby_state_15f2502|20|1 1,0,0,0,0,0,0,0,0,0,0,0,0,0,0,1,
scooby_state_13af6ea|2|1 1,0,0,0,0,0,0,0,0,0,0,0,0,0,0,1,
scooby_state_13afd99|38|1 1,0,0,0,0,0,0,0,0,0,0,0,0,0,0,1,
scooby_state_13b2e45|57|1 1,0,0,0,0,0,0,0,0,0,0,0,0,0,0,1,
scooby_state_13afa81|42|1 1,0,0,0,0,0,0,0,0,0,0,0,0,0,0,1,
scooby_state_13afac2|43|1 1,0,0,0,0,0,0,0,0,0,0,0,0,0,0,1,
scooby_state_13af807|37|2 1,0,0,0,0,0,0,0,0,0,0,0,0,0,0,1,
scooby_state_13afd27|52|6 1,0,0,0,0,0,0,0,0,0,0,0,0,0,0,1,
scooby_state_13ac9c7|39|1 1,0,0,0,0,0,0,0,0,0,0,0,0,0,0,1,
scooby_state_13ad145|5|1 1,0,0,0,0,0,0,0,0,0,0,0,0,0,0,1,
scooby_state_13abb30|44|0 1,0,0,0,0,0,0,0,0,0,0,0,0,0,0,1,
scooby_state_13b0c1e|42|1 1,0,0,0,0,0,0,0,0,0,0,0,0,0,0,1,
scooby_state_13b0e94|60|1 1,0,0,0,0,0,0,0,0,0,0,0,0,0,0,1,
scooby_state_13ad084|2|1 1,0,0,0,0,0,0,0,0,0,0,0,0,0,0,1,
scooby_state_16800ed|10|1 1,0,0,0,0,0,0,0,0,0,0,0,0,0,0,1,
scooby_state_13acf10|46|-1 1,0,0,0,0,0,0,0,0,0,0,0,0,0,0,1,
scooby_state_13ac183|6|1 1,0,0,0,0,0,0,0,0,0,0,0,0,0,0,1,
scooby_state_13b2b81|46|1 1,0,0,0,0,0,0,0,0,0,0,0,0,0,0,1,
scooby_state_13b0cdf|58|1 1,0,0,0,0,0,0,0,0,0,0,0,0,0,0,1,
scooby_state_13af848|58|1 1,0,0,0,0,0,0,0,0,0,0,0,0,0,0,1,
scooby_state_13b0e30|18|1 1,0,0,0,0,0,0,0,0,0,0,0,0,0,0,1,
scooby_state_13ad1c3|7|1 1,0,0,0,0,0,0,0,0,0,0,0,0,0,0,1,
scooby_state_13ad202|8|1 1,0,0,0,0,0,0,0,0,0,0,0,0,0,0,1,
scooby_state_13acf08|60|1 1,0,0,0,0,0,0,0,0,0,0,0,0,0,0,1,
scooby_state_13acf08|35|-6 1,0,0,0,0,0,0,0,0,0,0,0,0,0,0,1,
scooby_state_16265c0|23|1 1,0,0,0,0,0,0,0,0,0,0,0,0,0,0,1,
scooby_state_13b0e30|20|1 1,0,0,0,0,0,0,0,0,0,0,0,0,0,0,1,
scooby_state_13abbc2|47|1 1,0,0,0,0,0,0,0,0,0,0,0,0,0,0,1,
scooby_state_13ad040|1|1 1,0,0,0,0,0,0,0,0,0,0,0,0,0,0,1,
scooby_state_13b21c8|7|1 1,0,0,0,0,0,0,0,0,0,0,0,0,0,0,1,
scooby_state_13af807|37|-23 1,0,0,0,0,0,0,0,0,0,0,0,0,0,0,1,
scooby_state_1668983|38|1 1,0,0,0,0,0,0,0,0,0,0,0,0,0,0,1,
scooby_state_16262ba|35|0 1,0,0,0,0,0,0,0,0,0,0,0,0,0,0,1,
scooby_state_13b0e94|39|1 1,0,0,0,0,0,0,0,0,0,0,0,0,0,0,1,
scooby_state_13afd36|20|1 1,0,0,0,0,0,0,0,0,0,0,0,0,0,0,1,
scooby_state_1674450|17|1 1,0,0,0,0,0,0,0,0,0,0,0,0,0,0,1,
scooby_state_1680117|7|1 1,0,0,0,0,0,0,0,0,0,0,0,0,0,0,1,
scooby_state_13abb52|9|0 1,0,0,0,0,0,0,0,0,0,0,0,0,0,0,1,
scooby_state_13ac142|5|1 1,0,0,0,0,0,0,0,0,0,0,0,0,0,0,1,
scooby_state_13ace87|58|1 1,0,0,0,0,0,0,0,0,0,0,0,0,0,0,1,
scooby_state_13acf45|61|1 1,0,0,0,0,0,0,0,0,0,0,0,0,0,0,1,
scooby_state_13acfc3|63|1 1,0,0,0,0,0,0,0,0,0,0,0,0,0,0,1,
scooby_state_13b1204|8|1 1,0,0,0,0,0,0,0,0,0,0,0,0,0,0,1,
scooby_state_13b1143|5|1 1,0,0,0,0,0,0,0,0,0,0,0,0,0,0,1,
scooby_state_13af75e|12|1 1,0,0,0,0,0,0,0,0,0,0,0,0,0,0,1,
scooby_state_13b0e94|54|1 1,0,0,0,0,0,0,0,0,0,0,0,0,0,0,1,
scooby_state_13af807|32|1 1,0,0,0,0,0,0,0,0,0,0,0,0,0,0,1,
scooby_state_13ac5c2|23|1 1,0,0,0,0,0,0,0,0,0,0,0,0,0,0,1,
scooby_state_13b1b80|46|1 1,0,0,0,0,0,0,0,0,0,0,0,0,0,0,1,
scooby_state_13af6ea|1|0 1,0,0,0,0,0,0,0,0,0,0,0,0,0,0,1,
scooby_state_13af840|33|1 1,0,0,0,0,0,0,0,0,0,0,0,0,0,0,1,
scooby_state_13af848|54|0 1,0,0,0,0,0,0,0,0,0,0,0,0,0,0,1,
scooby_state_13af884|34|1 1,0,0,0,0,0,0,0,0,0,0,0,0,0,0,1,
scooby_state_13af8c4|35|1 1,0,0,0,0,0,0,0,0,0,0,0,0,0,0,1,
scooby_state_13b1a42|41|1 1,0,0,0,0,0,0,0,0,0,0,0,0,0,0,1,
scooby_state_13b0e94|57|1 1,0,0,0,0,0,0,0,0,0,0,0,0,0,0,1,
scooby_state_13b1581|22|1 1,0,0,0,0,0,0,0,0,0,0,0,0,0,0,1,
scooby_state_13ad21a|61|29 1,0,0,0,0,0,0,0,0,0,0,0,0,0,0,1,
scooby_state_13af848|55|1 1,0,0,0,0,0,0,0,0,0,0,0,0,0,0,1,
scooby_state_13af807|35|-23 1,0,0,0,0,0,0,0,0,0,0,0,0,0,0,1,
scooby_state_16800ed|38|1 1,0,0,0,0,0,0,0,0,0,0,0,0,0,0,1,
scooby_state_13b0e94|36|1 1,0,0,0,0,0,0,0,0,0,0,0,0,0,0,1,
scooby_state_13af812|6|1 1,0,0,0,0,0,0,0,0,0,0,0,0,0,0,1,
scooby_state_13ad290|8|4 1,0,0,0,0,0,0,0,0,0,0,0,0,0,0,1,
scooby_state_13acfc3|25|1 1,0,0,0,0,0,0,0,0,0,0,0,0,0,0,1,
scooby_state_16262c2|11|1 1,0,0,0,0,0,0,0,0,0,0,0,0,0,0,1,
scooby_state_13afd36|8|1 1,0,0,0,0,0,0,0,0,0,0,0,0,0,0,1,
scooby_state_13ad1e5|56|-4 1,0,0,0,0,0,0,0,0,0,0,0,0,0,0,1,
scooby_state_13b0941|37|1 1,0,0,0,0,0,0,0,0,0,0,0,0,0,0,1,
scooby_state_13ad237|53|-5 1,0,0,0,0,0,0,0,0,0,0,0,0,0,0,1,
scooby_state_13acccd|18|1 1,0,0,0,0,0,0,0,0,0,0,0,0,0,0,1,
scooby_state_13b0bbb|1|0 1,0,0,0,0,0,0,0,0,0,0,0,0,0,0,1,
scooby_state_13b00c0|3|1 1,0,0,0,0,0,0,0,0,0,0,0,0,0,0,1,
scooby_state_13b0c1e|53|1 1,0,0,0,0,0,0,0,0,0,0,0,0,0,0,1,
scooby_state_13abd02|52|1 1,0,0,0,0,0,0,0,0,0,0,0,0,0,0,1,
scooby_state_13ad1ce|12|0 1,0,0,0,0,0,0,0,0,0,0,0,0,0,0,1,
scooby_state_13abb41|45|1 1,0,0,0,0,0,0,0,0,0,0,0,0,0,0,1,
scooby_state_13adbc5|47|34 1,0,0,0,0,0,0,0,0,0,0,0,0,0,0,1,
scooby_state_13af6d0|27|0 1,0,0,0,0,0,0,0,0,0,0,0,0,0,0,1,
scooby_state_13b11c3|7|1 1,0,0,0,0,0,0,0,0,0,0,0,0,0,0,1,
scooby_state_13b0e94|53|1 1,0,0,0,0,0,0,0,0,0,0,0,0,0,0,1,
scooby_state_13b0a95|56|1 1,0,0,0,0,0,0,0,0,0,0,0,0,0,0,1,
scooby_state_13b0cdf|14|1 1,0,0,0,0,0,0,0,0,0,0,0,0,0,0,1,
scooby_state_13b0b28|35|0 1,0,0,0,0,0,0,0,0,0,0,0,0,0,0,1,
scooby_state_13b0cdf|15|1 1,0,0,0,0,0,0,0,0,0,0,0,0,0,0,1,
scooby_state_13b0bbb|29|1 1,0,0,0,0,0,0,0,0,0,0,0,0,0,0,1,
scooby_state_13ac223|32|0 1,0,0,0,0,0,0,0,0,0,0,0,0,0,0,1,
scooby_state_13b0e94|51|1 1,0,0,0,0,0,0,0,0,0,0,0,0,0,0,1,
scooby_state_13b0e94|52|1 1,0,0,0,0,0,0,0,0,0,0,0,0,0,0,1,
scooby_state_13b0c1e|0|0 1,0,0,0,0,0,0,0,0,0,0,0,0,0,0,1,
scooby_state_13b0e94|55|1 1,0,0,0,0,0,0,0,0,0,0,0,0,0,0,1,
scooby_state_13af75e|37|0 1,0,0,0,0,0,0,0,0,0,0,0,0,0,0,1,
scooby_state_13af75e|38|1 1,0,0,0,0,0,0,0,0,0,0,0,0,0,0,1,
scooby_state_13af75e|39|1 1,0,0,0,0,0,0,0,0,0,0,0,0,0,0,1,
scooby_state_13b0e94|59|1 1,0,0,0,0,0,0,0,0,0,0,0,0,0,0,1,
scooby_state_13afd36|31|1 1,0,0,0,0,0,0,0,0,0,0,0,0,0,0,1,
scooby_state_13afd36|32|1 1,0,0,0,0,0,0,0,0,0,0,0,0,0,0,1,
scooby_state_13afd36|33|1 1,0,0,0,0,0,0,0,0,0,0,0,0,0,0,1,
scooby_state_13b0cdf|11|1 1,0,0,0,0,0,0,0,0,0,0,0,0,0,0,1,
scooby_state_1680117|38|1 1,0,0,0,0,0,0,0,0,0,0,0,0,0,0,1,
scooby_state_13b2c85|50|1 1,0,0,0,0,0,0,0,0,0,0,0,0,0,0,1,
scooby_state_13acea2|41|2 1,0,0,0,0,0,0,0,0,0,0,0,0,0,0,1,
scooby_state_13b2e85|58|1 1,0,0,0,0,0,0,0,0,0,0,0,0,0,0,1,
scooby_state_13b2f02|60|1 1,0,0,0,0,0,0,0,0,0,0,0,0,0,0,1,
scooby_state_13b2990|59|12 1,0,0,0,0,0,0,0,0,0,0,0,0,0,0,1,
scooby_state_13b0bbb|22|3 1,0,0,0,0,0,0,0,0,0,0,0,0,0,0,1,
scooby_state_13b0c8a|22|-15 1,0,0,0,0,0,0,0,0,0,0,0,0,0,0,1,
scooby_state_13afd27|43|2 1,0,0,0,0,0,0,0,0,0,0,0,0,0,0,1,
scooby_state_13b0a95|54|1 1,0,0,0,0,0,0,0,0,0,0,0,0,0,0,1,
scooby_state_13b0bbb|23|1 1,0,0,0,0,0,0,0,0,0,0,0,0,0,0,1,
scooby_state_13b0cdf|12|1 1,0,0,0,0,0,0,0,0,0,0,0,0,0,0,1,
scooby_state_13b0beb|10|1 1,0,0,0,0,0,0,0,0,0,0,0,0,0,0,1,
scooby_state_13b0c1e|63|1 1,0,0,0,0,0,0,0,0,0,0,0,0,0,0,1,
scooby_state_13b0a95|55|1 1,0,0,0,0,0,0,0,0,0,0,0,0,0,0,1,
scooby_state_13b0cdf|13|1 1,0,0,0,0,0,0,0,0,0,0,0,0,0,0,1,
scooby_state_13b0beb|11|1 1,0,0,0,0,0,0,0,0,0,0,0,0,0,0,1,
scooby_state_13b0c1e|4|1 1,0,0,0,0,0,0,0,0,0,0,0,0,0,0,1,
scooby_state_13acccd|23|1 1,0,0,0,0,0,0,0,0,0,0,0,0,0,0,1,
scooby_state_13acccd|24|1 1,0,0,0,0,0,0,0,0,0,0,0,0,0,0,1,
scooby_state_13acccd|25|1 1,0,0,0,0,0,0,0,0,0,0,0,0,0,0,1,
scooby_state_13b0bbb|27|2 1,0,0,0,0,0,0,0,0,0,0,0,0,0,0,1,
scooby_state_13b0beb|14|3 1,0,0,0,0,0,0,0,0,0,0,0,0,0,0,1,
scooby_state_13b0c1e|3|3 1,0,0,0,0,0,0,0,0,0,0,0,0,0,0,1,
scooby_state_13b0cdf|16|1 1,0,0,0,0,0,0,0,0,0,0,0,0,0,0,1,
scooby_state_13b0bbb|28|1 1,0,0,0,0,0,0,0,0,0,0,0,0,0,0,1,
scooby_state_13acce6|38|1 1,0,0,0,0,0,0,0,0,0,0,0,0,0,0,1,
scooby_state_13b0a95|60|1 1,0,0,0,0,0,0,0,0,0,0,0,0,0,0,1,
scooby_state_13b0c1e|5|1 1,0,0,0,0,0,0,0,0,0,0,0,0,0,0,1,
scooby_state_13b0beb|16|1 1,0,0,0,0,0,0,0,0,0,0,0,0,0,0,1,
scooby_state_13b0bbb|30|1 1,0,0,0,0,0,0,0,0,0,0,0,0,0,0,1,
scooby_state_13b0cdf|19|1 1,0,0,0,0,0,0,0,0,0,0,0,0,0,0,1,
scooby_state_13b0beb|17|1 1,0,0,0,0,0,0,0,0,0,0,0,0,0,0,1,
scooby_state_13b0a95|62|1 1,0,0,0,0,0,0,0,0,0,0,0,0,0,0,1,
scooby_state_13b0cdf|20|1 1,0,0,0,0,0,0,0,0,0,0,0,0,0,0,1,
scooby_state_16800e5|40|1 1,0,0,0,0,0,0,0,0,0,0,0,0,0,0,1,
scooby_state_13afd36|35|1 1,0,0,0,0,0,0,0,0,0,0,0,0,0,0,1,
scooby_state_13b01be|41|18 1,0,0,0,0,0,0,0,0,0,0,0,0,0,0,1,
scooby_state_166884f|27|3 1,0,0,0,0,0,0,0,0,0,0,0,0,0,0,1,
scooby_state_1680117|57|1 1,0,0,0,0,0,0,0,0,0,0,0,0,0,0,1,
scooby_state_1680117|58|1 1,0,0,0,0,0,0,0,0,0,0,0,0,0,0,1,
scooby_state_1680117|59|1 1,0,0,0,0,0,0,0,0,0,0,0,0,0,0,1,
scooby_state_16800e5|36|1 1,0,0,0,0,0,0,0,0,0,0,0,0,0,0,1,
scooby_state_16800e5|38|1 1,0,0,0,0,0,0,0,0,0,0,0,0,0,0,1,
scooby_state_13b2c41|49|1 1,0,0,0,0,0,0,0,0,0,0,0,0,0,0,1,
scooby_state_13b2990|59|0 1,0,0,0,0,0,0,0,0,0,0,0,0,0,0,1,
scooby_state_13b2cdd|60|7 1,0,0,0,0,0,0,0,0,0,0,0,0,0,0,1,
scooby_state_13ac600|23|1 1,0,0,0,0,0,0,0,0,0,0,0,0,0,0,1,
scooby_state_13ac600|26|1 1,0,0,0,0,0,0,0,0,0,0,0,0,0,0,1,
scooby_state_1680117|6|1 1,0,0,0,0,0,0,0,0,0,0,0,0,0,0,1,
scooby_state_1680117|8|1 1,0,0,0,0,0,0,0,0,0,0,0,0,0,0,1,
scooby_state_1680117|9|1 1,0,0,0,0,0,0,0,0,0,0,0,0,0,0,1,
scooby_state_16800b0|48|1 1,0,0,0,0,0,0,0,0,0,0,0,0,0,0,1,
scooby_state_13b0581|22|1 1,0,0,0,0,0,0,0,0,0,0,0,0,0,0,1,
scooby_state_13b0a95|51|1 1,0,0,0,0,0,0,0,0,0,0,0,0,0,0,1,
scooby_state_166c390|6|0 1,0,0,0,0,0,0,0,0,0,0,0,0,0,0,1,
scooby_state_13ac600|17|1 1,0,0,0,0,0,0,0,0,0,0,0,0,0,0,1,
scooby_state_13b2302|12|1 1,0,0,0,0,0,0,0,0,0,0,0,0,0,0,1,
scooby_state_166c3ca|15|1 1,0,0,0,0,0,0,0,0,0,0,0,0,0,0,1,
scooby_state_1668700|28|0 1,0,0,0,0,0,0,0,0,0,0,0,0,0,0,1,
scooby_state_166884f|27|1 1,0,0,0,0,0,0,0,0,0,0,0,0,0,0,1,
scooby_state_166c390|14|0 1,0,0,0,0,0,0,0,0,0,0,0,0,0,0,1,
scooby_state_1680040|1|-4 1,0,0,0,0,0,0,0,0,0,0,0,0,0,0,1,
scooby_state_13b0446|17|1 1,0,0,0,0,0,0,0,0,0,0,0,0,0,0,1,
scooby_state_13af75e|36|1 1,0,0,0,0,0,0,0,0,0,0,0,0,0,0,1,
scooby_state_13abba0|26|7 1,0,0,0,0,0,0,0,0,0,0,0,0,0,0,1,
scooby_state_13b0e94|32|1 1,0,0,0,0,0,0,0,0,0,0,0,0,0,0,1,
scooby_state_166c3a9|48|-5 1,0,0,0,0,0,0,0,0,0,0,0,0,0,0,1,
scooby_state_13b04c4|19|1 1,0,0,0,0,0,0,0,0,0,0,0,0,0,0,1,
scooby_state_13b0f07|60|2 1,0,0,0,0,0,0,0,0,0,0,0,0,0,0,1,
scooby_state_13b0200|8|1 1,0,0,0,0,0,0,0,0,0,0,0,0,0,0,1,
scooby_state_16800e5|9|1 1,0,0,0,0,0,0,0,0,0,0,0,0,0,0,1,
scooby_state_13ac1c7|7|1 1,0,0,0,0,0,0,0,0,0,0,0,0,0,0,1,
scooby_state_13b0beb|59|1 1,0,0,0,0,0,0,0,0,0,0,0,0,0,0,1,
scooby_state_13b0140|5|1 1,0,0,0,0,0,0,0,0,0,0,0,0,0,0,1,
scooby_state_13b0182|6|1 1,0,0,0,0,0,0,0,0,0,0,0,0,0,0,1,
scooby_state_13acccd|62|1 1,0,0,0,0,0,0,0,0,0,0,0,0,0,0,1,
scooby_state_13b01c6|7|1 1,0,0,0,0,0,0,0,0,0,0,0,0,0,0,1,
scooby_state_13ad245|9|1 1,0,0,0,0,0,0,0,0,0,0,0,0,0,0,1,
scooby_state_13b0504|20|1 1,0,0,0,0,0,0,0,0,0,0,0,0,0,0,1,
scooby_state_1625f82|62|3 1,0,0,0,0,0,0,0,0,0,0,0,0,0,0,1,
scooby_state_13b0281|10|1 1,0,0,0,0,0,0,0,0,0,0,0,0,0,0,1,
scooby_state_166884f|33|-14 1,0,0,0,0,0,0,0,0,0,0,0,0,0,0,1,
scooby_state_13af721|27|-29 1,0,0,0,0,0,0,0,0,0,0,0,0,0,0,1,
scooby_state_1626242|9|1 1,0,0,0,0,0,0,0,0,0,0,0,0,0,0,1,
scooby_state_13b0341|13|1 1,0,0,0,0,0,0,0,0,0,0,0,0,0,0,1,
scooby_state_13b2543|21|1 1,0,0,0,0,0,0,0,0,0,0,0,0,0,0,1,
scooby_state_13b0400|16|1 1,0,0,0,0,0,0,0,0,0,0,0,0,0,0,1,
scooby_state_13b13c1|15|1 1,0,0,0,0,0,0,0,0,0,0,0,0,0,0,1,
scooby_state_1680117|27|1 1,0,0,0,0,0,0,0,0,0,0,0,0,0,0,1,
scooby_state_13b0c1e|41|0 1,0,0,0,0,0,0,0,0,0,0,0,0,0,0,1,
scooby_state_13ac600|0|0 0,1,0,0,0,0,0,0,0,0,0,0,0,0,0,1,
scooby_state_13acccd|22|1 1,0,0,0,0,0,0,0,0,0,0,0,0,0,0,1,
scooby_state_16800e5|7|1 1,0,0,0,0,0,0,0,0,0,0,0,0,0,0,1,
scooby_state_16800e5|8|1 1,0,0,0,0,0,0,0,0,0,0,0,0,0,0,1,
scooby_state_16800e5|37|1 1,0,0,0,0,0,0,0,0,0,0,0,0,0,0,1,
scooby_state_13b2947|37|1 1,0,0,0,0,0,0,0,0,0,0,0,0,0,0,1,
scooby_state_16800e5|28|1 1,0,0,0,0,0,0,0,0,0,0,0,0,0,0,1,
scooby_state_16800b0|5|1 1,0,0,0,0,0,0,0,0,0,0,0,0,0,0,1,
scooby_state_13abb47|31|1 1,0,0,0,0,0,0,0,0,0,0,0,0,0,0,1,
scooby_state_13afd36|5|0 1,0,0,0,0,0,0,0,0,0,0,0,0,0,0,1,
scooby_state_16800ed|57|1 1,0,0,0,0,0,0,0,0,0,0,0,0,0,0,1,
scooby_state_13b2983|38|1 1,0,0,0,0,0,0,0,0,0,0,0,0,0,0,1,
scooby_state_13b2a45|41|1 1,0,0,0,0,0,0,0,0,0,0,0,0,0,0,1,
scooby_state_13b2b45|45|1 1,0,0,0,0,0,0,0,0,0,0,0,0,0,0,1,
scooby_state_13b2a05|40|1 1,0,0,0,0,0,0,0,0,0,0,0,0,0,0,1,
scooby_state_13b2800|32|31 1,0,0,0,0,0,0,0,0,0,0,0,0,0,0,1,
scooby_state_16800e5|62|1 1,0,0,0,0,0,0,0,0,0,0,0,0,0,0,1,
scooby_state_16800e5|26|1 1,0,0,0,0,0,0,0,0,0,0,0,0,0,0,1,
scooby_state_13b2cc5|51|1 1,0,0,0,0,0,0,0,0,0,0,0,0,0,0,1,
scooby_state_13aca00|40|1 1,0,0,0,0,0,0,0,0,0,0,0,0,0,0,1,
scooby_state_13b0540|21|1 1,0,0,0,0,0,0,0,0,0,0,0,0,0,0,1,
scooby_state_13ad36d|58|0 1,0,0,0,0,0,0,0,0,0,0,0,0,0,0,1,
scooby_state_13b3107|4|0 1,0,0,0,0,0,0,0,0,0,0,0,0,0,0,1,
scooby_state_13b0bbb|2|1 1,0,0,0,0,0,0,0,0,0,0,0,0,0,0,1,
scooby_state_13ac270|9|-3 1,0,0,0,0,0,0,0,0,0,0,0,0,0,0,1,
scooby_state_13b2840|33|1 1,0,0,0,0,0,0,0,0,0,0,0,0,0,0,1,
scooby_state_16800b0|35|0 1,0,0,0,0,0,0,0,0,0,0,0,0,0,0,1,
scooby_state_1680100|4|1 1,0,0,0,0,0,0,0,0,0,0,0,0,0,0,1,
scooby_state_13afd36|14|1 1,0,0,0,0,0,0,0,0,0,0,0,0,0,0,1,
scooby_state_1680010|0|0 1,0,0,0,0,0,0,0,0,0,0,0,0,0,0,1,
scooby_state_13ac482|18|1 1,0,0,0,0,0,0,0,0,0,0,0,0,0,0,1,
scooby_state_13b2e05|56|1 1,0,0,0,0,0,0,0,0,0,0,0,0,0,0,1,
scooby_state_13b0e94|48|1 1,0,0,0,0,0,0,0,0,0,0,0,0,0,0,1,
scooby_state_13abdc1|55|1 1,0,0,0,0,0,0,0,0,0,0,0,0,0,0,1,
scooby_state_13af721|31|-4 1,0,0,0,0,0,0,0,0,0,0,0,0,0,0,1,
scooby_state_13afb42|45|1 1,0,0,0,0,0,0,0,0,0,0,0,0,0,0,1,
scooby_state_166c3a9|18|11 1,0,0,0,0,0,0,0,0,0,0,0,0,0,0,1,
scooby_state_13b0a95|35|1 1,0,0,0,0,0,0,0,0,0,0,0,0,0,0,1,
scooby_state_13b1dc4|55|1 1,0,0,0,0,0,0,0,0,0,0,0,0,0,0,1,
scooby_state_13afd36|9|1 1,0,0,0,0,0,0,0,0,0,0,0,0,0,0,1,
scooby_state_13af75e|33|1 1,0,0,0,0,0,0,0,0,0,0,0,0,0,0,1,
scooby_state_13b1407|16|1 1,0,0,0,0,0,0,0,0,0,0,0,0,0,0,1,
scooby_state_13af75e|28|1 1,0,0,0,0,0,0,0,0,0,0,0,0,0,0,1,
scooby_state_13ac14a|21|1 1,0,0,0,0,0,0,0,0,0,0,0,0,0,0,1,
scooby_state_13ace27|45|7 1,0,0,0,0,0,0,0,0,0,0,0,0,0,0,1,
scooby_state_1625fdc|37|0 1,0,0,0,0,0,0,0,0,0,0,0,0,0,0,1,
scooby_state_13b0beb|9|3 1,0,0,0,0,0,0,0,0,0,0,0,0,0,0,1,
scooby_state_13b0041|1|1 1,0,0,0,0,0,0,0,0,0,0,0,0,0,0,1,
scooby_state_13ad1a6|63|24 1,0,0,0,0,0,0,0,0,0,0,0,0,0,0,1,
scooby_state_1626281|10|-4 1,0,0,0,0,0,0,0,0,0,0,0,0,0,0,1,
scooby_state_13b2242|9|1 1,0,0,0,0,0,0,0,0,0,0,0,0,0,0,1,
scooby_state_13abfc1|63|1 1,0,0,0,0,0,0,0,0,0,0,0,0,0,0,1,
scooby_state_16264ff|38|1 1,0,0,0,0,0,0,0,0,0,0,0,0,0,0,1,
scooby_state_13b1ac5|43|1 1,0,0,0,0,0,0,0,0,0,0,0,0,0,0,1,
scooby_state_13abb52|11|1 1,0,0,0,0,0,0,0,0,0,0,0,0,0,0,1,
scooby_state_13afd27|41|4 1,0,0,0,0,0,0,0,0,0,0,0,0,0,0,1,
scooby_state_13b1444|17|1 1,0,0,0,0,0,0,0,0,0,0,0,0,0,0,1,
scooby_state_13b03c1|15|1 1,0,0,0,0,0,0,0,0,0,0,0,0,0,0,1,
scooby_state_13b0481|18|1 1,0,0,0,0,0,0,0,0,0,0,0,0,0,0,1,
scooby_state_13ac5ec|37|15 1,0,0,0,0,0,0,0,0,0,0,0,0,0,0,1,
scooby_state_1626447|17|1 1,0,0,0,0,0,0,0,0,0,0,0,0,0,0,1,
scooby_state_13b0bbb|8|1 1,0,0,0,0,0,0,0,0,0,0,0,0,0,0,1,
scooby_state_13b1fc3|63|1 1,0,0,0,0,0,0,0,0,0,0,0,0,0,0,1,
scooby_state_13b0fc3|63|1 1,0,0,0,0,0,0,0,0,0,0,0,0,0,0,1,
scooby_state_13b1f41|61|1 1,0,0,0,0,0,0,0,0,0,0,0,0,0,0,1,
scooby_state_1626301|12|9 1,0,0,0,0,0,0,0,0,0,0,0,0,0,0,1,
scooby_state_13ac680|26|1 1,0,0,0,0,0,0,0,0,0,0,0,0,0,0,1,
scooby_state_1625fac|34|-1 1,0,0,0,0,0,0,0,0,0,0,0,0,0,0,1,
scooby_state_13b1242|9|1 1,0,0,0,0,0,0,0,0,0,0,0,0,0,0,1,
scooby_state_1626481|18|1 1,0,0,0,0,0,0,0,0,0,0,0,0,0,0,1,
scooby_state_13b3042|1|1 1,0,0,0,0,0,0,0,0,0,0,0,0,0,0,1,
scooby_state_13b3107|51|15 1,0,0,0,0,0,0,0,0,0,0,0,0,0,0,1,
[...]
scooby_state_13acce6|23|1 1,0,0,0,0,0,0,0,0,0,0,0,0,0,0,1,
scooby_state_13af75e|26|1 1,0,0,0,0,0,0,0,0,0,0,0,0,0,0,1,
scooby_state_1674484|18|1 1,0,0,0,0,0,0,0,0,0,0,0,0,0,0,1,
scooby_state_13b0cdf|62|1 1,0,0,0,0,0,0,0,0,0,0,0,0,0,0,1,
scooby_state_13af812|8|1 1,0,0,0,0,0,0,0,0,0,0,0,0,0,0,1,
scooby_state_13abbc2|47|0 1,0,0,0,0,0,0,0,0,0,0,0,0,0,0,1,
scooby_state_13af812|10|1 1,0,0,0,0,0,0,0,0,0,0,0,0,0,0,1,
scooby_state_13ac6c4|27|1 1,0,0,0,0,0,0,0,0,0,0,0,0,0,0,1,
scooby_state_13aedc3|55|1 1,0,0,0,0,0,0,0,0,0,0,0,0,0,0,1,
scooby_state_168010f|54|1 1,0,0,0,0,0,0,0,0,0,0,0,0,0,0,1,
scooby_state_13b18c6|35|1 1,0,0,0,0,0,0,0,0,0,0,0,0,0,0,1,
scooby_state_16267c1|31|1 1,0,0,0,0,0,0,0,0,0,0,0,0,0,0,1,
scooby_state_13b19c4|39|1 1,0,0,0,0,0,0,0,0,0,0,0,0,0,0,1,
scooby_state_1625a88|41|7 1,0,0,0,0,0,0,0,0,0,0,0,0,0,0,1,
scooby_state_1680117|47|1 1,0,0,0,0,0,0,0,0,0,0,0,0,0,0,1,
scooby_state_15f2490|18|1 1,0,0,0,0,0,0,0,0,0,0,0,0,0,0,1,
scooby_state_166c3a9|20|-15 1,0,0,0,0,0,0,0,0,0,0,0,0,0,0,1,
scooby_state_13af6ea|4|1 1,0,0,0,0,0,0,0,0,0,0,0,0,0,0,1,
scooby_state_13ad1a6|58|57 1,0,0,0,0,0,0,0,0,0,0,0,0,0,0,1,
scooby_state_13afd36|12|1 1,0,0,0,0,0,0,0,0,0,0,0,0,0,0,1,
scooby_state_13afbca|0|-5 1,0,0,0,0,0,0,0,0,0,0,0,0,0,0,1,
scooby_state_13b0e94|28|1 1,0,0,0,0,0,0,0,0,0,0,0,0,0,0,1,
scooby_state_13af7c8|31|1 1,0,0,0,0,0,0,0,0,0,0,0,0,0,0,1,
scooby_state_13b0bbb|9|1 1,0,0,0,0,0,0,0,0,0,0,0,0,0,0,1,
scooby_state_13ac0c2|3|1 1,0,0,0,0,0,0,0,0,0,0,0,0,0,0,1,
scooby_state_13af75e|16|1 1,0,0,0,0,0,0,0,0,0,0,0,0,0,0,1,
scooby_state_13b1c08|48|1 1,0,0,0,0,0,0,0,0,0,0,0,0,0,0,1,
scooby_state_13ad300|12|1 1,0,0,0,0,0,0,0,0,0,0,0,0,0,0,1,
scooby_state_15f2603|24|-2 1,0,0,0,0,0,0,0,0,0,0,0,0,0,0,1,
scooby_state_13b0e94|27|1 1,0,0,0,0,0,0,0,0,0,0,0,0,0,0,1,
scooby_state_13ad2a3|5|0 1,0,0,0,0,0,0,0,0,0,0,0,0,0,0,1,
scooby_state_13ad275|25|1 1,0,0,0,0,0,0,0,0,0,0,0,0,0,0,1,
scooby_state_13b1342|13|1 1,0,0,0,0,0,0,0,0,0,0,0,0,0,0,1,
scooby_state_13ac044|1|1 1,0,0,0,0,0,0,0,0,0,0,0,0,0,0,1,
scooby_state_1625f45|61|1 1,0,0,0,0,0,0,0,0,0,0,0,0,0,0,1,
scooby_state_13abf42|61|1 1,0,0,0,0,0,0,0,0,0,0,0,0,0,0,1,
scooby_state_16267b0|30|7 1,0,0,0,0,0,0,0,0,0,0,0,0,0,0,1,
scooby_state_13abec2|59|1 1,0,0,0,0,0,0,0,0,0,0,0,0,0,0,1,
scooby_state_13b0c1e|57|1 1,0,0,0,0,0,0,0,0,0,0,0,0,0,0,1,
scooby_state_16800ed|19|1 1,0,0,0,0,0,0,0,0,0,0,0,0,0,0,1,
scooby_state_13abe81|58|1 1,0,0,0,0,0,0,0,0,0,0,0,0,0,0,1,
scooby_state_1668830|32|3 1,0,0,0,0,0,0,0,0,0,0,0,0,0,0,1,
scooby_state_13b1683|26|1 1,0,0,0,0,0,0,0,0,0,0,0,0,0,0,1,
scooby_state_13b2443|17|1 1,0,0,0,0,0,0,0,0,0,0,0,0,0,0,1,
scooby_state_1625f34|60|0 1,0,0,0,0,0,0,0,0,0,0,0,0,0,0,1,
scooby_state_13b0fa0|29|1 1,0,0,0,0,0,0,0,0,0,0,0,0,0,0,1,
scooby_state_13b0e94|44|1 1,0,0,0,0,0,0,0,0,0,0,0,0,0,0,1,
scooby_state_13b1504|20|1 1,0,0,0,0,0,0,0,0,0,0,0,0,0,0,1,
scooby_state_13ace16|38|-5 1,0,0,0,0,0,0,0,0,0,0,0,0,0,0,1,
scooby_state_13aceaa|47|0 1,0,0,0,0,0,0,0,0,0,0,0,0,0,0,1,
scooby_state_13b0e94|56|1 1,0,0,0,0,0,0,0,0,0,0,0,0,0,0,1,
scooby_state_13b1483|18|1 1,0,0,0,0,0,0,0,0,0,0,0,0,0,0,1,
scooby_state_13b0beb|62|3 1,0,0,0,0,0,0,0,0,0,0,0,0,0,0,1,
scooby_state_13b1382|14|1 1,0,0,0,0,0,0,0,0,0,0,0,0,0,0,1,
scooby_state_15f2536|30|6 0,1,0,0,0,0,0,0,0,0,0,0,0,0,0,1,
scooby_state_13b1302|12|1 1,0,0,0,0,0,0,0,0,0,0,0,0,0,0,1,
scooby_state_13acc44|49|1 1,0,0,0,0,0,0,0,0,0,0,0,0,0,0,1,
scooby_state_13ad2c7|11|1 1,0,0,0,0,0,0,0,0,0,0,0,0,0,0,1,
scooby_state_13b1181|6|1 1,0,0,0,0,0,0,0,0,0,0,0,0,0,0,1,
scooby_state_166884f|27|-28 1,0,0,0,0,0,0,0,0,0,0,0,0,0,0,1,
scooby_state_13b1c45|49|1 1,0,0,0,0,0,0,0,0,0,0,0,0,0,0,1,
scooby_state_166a481|18|1 1,0,0,0,0,0,0,0,0,0,0,0,0,0,0,1,
scooby_state_13ad181|6|1 1,0,0,0,0,0,0,0,0,0,0,0,0,0,0,1,
scooby_state_13abc34|51|24 1,0,0,0,0,0,0,0,0,0,0,0,0,0,0,1,
scooby_state_13b1642|25|1 1,0,0,0,0,0,0,0,0,0,0,0,0,0,0,1,
scooby_state_13b0a95|59|1 1,0,0,0,0,0,0,0,0,0,0,0,0,0,0,1,
scooby_state_13b0f80|58|1 1,0,0,0,0,0,0,0,0,0,0,0,0,0,0,1,
scooby_state_1669cd1|51|-9 1,0,0,0,0,0,0,0,0,0,0,0,0,0,0,1,
scooby_state_13ac402|16|1 1,0,0,0,0,0,0,0,0,0,0,0,0,0,0,1,
scooby_state_15f24c2|19|-6 1,0,0,0,0,0,0,0,0,0,0,0,0,0,0,1,
scooby_state_13abf01|60|1 1,0,0,0,0,0,0,0,0,0,0,0,0,0,0,1,
scooby_state_13b0843|33|1 1,0,0,0,0,0,0,0,0,0,0,0,0,0,0,1,
scooby_state_13abb47|27|0 1,0,0,0,0,0,0,0,0,0,0,0,0,0,0,1,
scooby_state_13b0b46|45|1 1,0,0,0,0,0,0,0,0,0,0,0,0,0,0,1,
scooby_state_15f2650|25|2 1,0,0,0,0,0,0,0,0,0,0,0,0,0,0,1,
scooby_state_1626435|16|4 1,0,0,0,0,0,0,0,0,0,0,0,0,0,0,1,
scooby_state_13af848|59|1 1,0,0,0,0,0,0,0,0,0,0,0,0,0,0,1,
scooby_state_13ac701|28|1 1,0,0,0,0,0,0,0,0,0,0,0,0,0,0,1,
scooby_state_1626370|13|4 1,0,0,0,0,0,0,0,0,0,0,0,0,0,0,1,
scooby_state_13b10c5|3|1 1,0,0,0,0,0,0,0,0,0,0,0,0,0,0,1,
scooby_state_13afd27|42|1 1,0,0,0,0,0,0,0,0,0,0,0,0,0,0,1,
scooby_state_13b1601|24|1 1,0,0,0,0,0,0,0,0,0,0,0,0,0,0,1,
scooby_state_13b0a95|41|1 1,0,0,0,0,0,0,0,0,0,0,0,0,0,0,1,
scooby_state_13abe00|56|1 1,0,0,0,0,0,0,0,0,0,0,0,0,0,0,1,
scooby_state_13ac801|32|2 1,0,0,0,0,0,0,0,0,0,0,0,0,0,0,1,
scooby_state_13b0a40|41|1 1,0,0,0,0,0,0,0,0,0,0,0,0,0,0,1,
scooby_state_16264c1|19|1 1,0,0,0,0,0,0,0,0,0,0,0,0,0,0,1,
scooby_state_13b203a|58|-5 1,0,0,0,0,0,0,0,0,0,0,0,0,0,0,1,
scooby_state_13b0a95|61|1 1,0,0,0,0,0,0,0,0,0,0,0,0,0,0,1,
scooby_state_13b2005|0|-21 1,0,0,0,0,0,0,0,0,0,0,0,0,0,0,1,
scooby_state_13abb47|30|1 1,0,0,0,0,0,0,0,0,0,0,0,0,0,0,1,
scooby_state_166886d|22|19 1,0,0,0,0,0,0,0,0,0,0,0,0,0,0,1,
scooby_state_13abc82|50|1 1,0,0,0,0,0,0,0,0,0,0,0,0,0,0,1,
scooby_state_13ac600|13|1 1,0,0,0,0,0,0,0,0,0,0,0,0,0,0,1,
scooby_state_13b1e42|57|1 1,0,0,0,0,0,0,0,0,0,0,0,0,0,0,1,
scooby_state_13b0a95|44|1 1,0,0,0,0,0,0,0,0,0,0,0,0,0,0,1,
scooby_state_13b10c5|3|0 1,0,0,0,0,0,0,0,0,0,0,0,0,0,0,1,
scooby_state_1680117|28|1 1,0,0,0,0,0,0,0,0,0,0,0,0,0,0,1,
scooby_state_13ac280|27|-35 1,0,0,0,0,0,0,0,0,0,0,0,0,0,0,1,
scooby_state_13acccd|10|1 1,0,0,0,0,0,0,0,0,0,0,0,0,0,0,1,
scooby_state_16266ec|35|0 1,0,0,0,0,0,0,0,0,0,0,0,0,0,0,1,
scooby_state_13ac200|8|-5 1,0,0,0,0,0,0,0,0,0,0,0,0,0,0,1,
scooby_state_15f3ac6|43|1 1,0,0,0,0,0,0,0,0,0,0,0,0,0,0,1,
scooby_state_1626703|28|1 1,0,0,0,0,0,0,0,0,0,0,0,0,0,0,1,
scooby_state_16263a0|14|1 1,0,0,0,0,0,0,0,0,0,0,0,0,0,0,1,
scooby_state_13b05c0|23|1 1,0,0,0,0,0,0,0,0,0,0,0,0,0,0,1,
scooby_state_16800e5|6|1 1,0,0,0,0,0,0,0,0,0,0,0,0,0,0,1,
scooby_state_1626100|4|-25 1,0,0,0,0,0,0,0,0,0,0,0,0,0,0,1,
scooby_state_13b20b2|31|2 1,0,0,0,0,0,0,0,0,0,0,0,0,0,0,1,
scooby_state_13ac2c2|11|8 1,0,0,0,0,0,0,0,0,0,0,0,0,0,0,1,
scooby_state_13acce6|37|6 1,0,0,0,0,0,0,0,0,0,0,0,0,0,0,1,
scooby_state_13acce6|39|1 1,0,0,0,0,0,0,0,0,0,0,0,0,0,0,1,
scooby_state_1625fb8|19|0 1,0,0,0,0,0,0,0,0,0,0,0,0,0,0,1,
scooby_state_13acae0|63|12 1,0,0,0,0,0,0,0,0,0,0,0,0,0,0,1,
scooby_state_13aed39|52|0 1,0,0,0,0,0,0,0,0,0,0,0,0,0,0,1,
scooby_state_13b2bc5|47|1 1,0,0,0,0,0,0,0,0,0,0,0,0,0,0,1,
scooby_state_13b2d05|52|1 1,0,0,0,0,0,0,0,0,0,0,0,0,0,0,1,
scooby_state_13ad198|4|-9 1,0,0,0,0,0,0,0,0,0,0,0,0,0,0,1,
scooby_state_13b2568|43|12 1,0,0,0,0,0,0,0,0,0,0,0,0,0,0,1,
scooby_state_166c3a9|3|-20 1,0,0,0,0,0,0,0,0,0,0,0,0,0,0,1,
scooby_state_168010f|55|1 1,0,0,0,0,0,0,0,0,0,0,0,0,0,0,1,
scooby_state_16800b0|4|0 1,0,0,0,0,0,0,0,0,0,0,0,0,0,0,1,
scooby_state_13b203a|57|-5 1,0,0,0,0,0,0,0,0,0,0,0,0,0,0,1,
scooby_state_13b2005|62|0 1,0,0,0,0,0,0,0,0,0,0,0,0,0,0,1,
scooby_state_1668880|34|1 1,0,0,0,0,0,0,0,0,0,0,0,0,0,0,1,
scooby_state_13ad342|13|1 1,0,0,0,0,0,0,0,0,0,0,0,0,0,0,1,
scooby_state_13aed39|52|-3 1,0,0,0,0,0,0,0,0,0,0,0,0,0,0,1,
scooby_state_1626641|25|1 1,0,0,0,0,0,0,0,0,0,0,0,0,0,0,1,
scooby_state_13b0c1e|62|3 1,0,0,0,0,0,0,0,0,0,0,0,0,0,0,1,
scooby_state_1626681|26|1 1,0,0,0,0,0,0,0,0,0,0,0,0,0,0,1,
scooby_state_13b22c1|11|1 1,0,0,0,0,0,0,0,0,0,0,0,0,0,0,1,
scooby_state_13b0f80|54|0 1,0,0,0,0,0,0,0,0,0,0,0,0,0,0,1,
scooby_state_13afba5|31|0 1,0,0,0,0,0,0,0,0,0,0,0,0,0,0,1,
scooby_state_1669bc0|47|-16 1,0,0,0,0,0,0,0,0,0,0,0,0,0,0,1,
scooby_state_13afd99|35|1 1,0,0,0,0,0,0,0,0,0,0,0,0,0,0,1,
scooby_state_13acc05|48|1 1,0,0,0,0,0,0,0,0,0,0,0,0,0,0,1,
scooby_state_13b2201|8|1 1,0,0,0,0,0,0,0,0,0,0,0,0,0,0,1,
scooby_state_13b0e94|30|5 1,0,0,0,0,0,0,0,0,0,0,0,0,0,0,1,
scooby_state_13b0bbb|24|1 1,0,0,0,0,0,0,0,0,0,0,0,0,0,0,1,
scooby_state_13acccd|7|1 1,0,0,0,0,0,0,0,0,0,0,0,0,0,0,1,
scooby_state_1626000|0|-32 1,0,0,0,0,0,0,0,0,0,0,0,0,0,0,1,
scooby_state_15f24b0|14|0 1,0,0,0,0,0,0,0,0,0,0,0,0,0,0,1,
scooby_state_15f2578|21|3 1,0,0,0,0,0,0,0,0,0,0,0,0,0,0,1,
scooby_state_1669e8a|58|-3 1,0,0,0,0,0,0,0,0,0,0,0,0,0,0,1,
scooby_state_13b1b03|44|1 1,0,0,0,0,0,0,0,0,0,0,0,0,0,0,1,
scooby_state_1626800|32|28 1,0,0,0,0,0,0,0,0,0,0,0,0,0,0,1,
scooby_state_1625b33|39|6 1,0,0,0,0,0,0,0,0,0,0,0,0,0,0,1,
scooby_state_13ac740|29|1 1,0,0,0,0,0,0,0,0,0,0,0,0,0,0,1,
scooby_state_13b0640|25|1 1,0,0,0,0,0,0,0,0,0,0,0,0,0,0,1,
scooby_state_13af75e|31|1 1,0,0,0,0,0,0,0,0,0,0,0,0,0,0,1,
scooby_state_13ac343|13|4 1,0,0,0,0,0,0,0,0,0,0,0,0,0,0,1,
scooby_state_15f25e8|23|1 1,0,0,0,0,0,0,0,0,0,0,0,0,0,0,1,
scooby_state_1668c80|50|1 1,0,0,0,0,0,0,0,0,0,0,0,0,0,0,1,
scooby_state_1626849|33|22 1,0,0,0,0,0,0,0,0,0,0,0,0,0,0,1,
scooby_state_13b2a85|42|1 1,0,0,0,0,0,0,0,0,0,0,0,0,0,0,1,
scooby_state_13b2a65|56|-1 1,0,0,0,0,0,0,0,0,0,0,0,0,0,0,1,
scooby_state_13af812|5|0 1,0,0,0,0,0,0,0,0,0,0,0,0,0,0,1,
scooby_state_1625ee8|59|1 1,0,0,0,0,0,0,0,0,0,0,0,0,0,0,1,
scooby_state_1625eb0|58|-3 1,0,0,0,0,0,0,0,0,0,0,0,0,0,0,1,
scooby_state_13af9c2|39|1 1,0,0,0,0,0,0,0,0,0,0,0,0,0,0,1,
scooby_state_13b2140|5|1 1,0,0,0,0,0,0,0,0,0,0,0,0,0,0,1,
scooby_state_13af75e|37|1 1,0,0,0,0,0,0,0,0,0,0,0,0,0,0,1,
scooby_state_13ace03|56|25 1,0,0,0,0,0,0,0,0,0,0,0,0,0,0,1,
scooby_state_1668bc1|47|1 1,0,0,0,0,0,0,0,0,0,0,0,0,0,0,1,
scooby_state_13affb3|62|15 1,0,0,0,0,0,0,0,0,0,0,0,0,0,0,1,
scooby_state_13ad198|7|1 1,0,0,0,0,0,0,0,0,0,0,0,0,0,0,1,
scooby_state_13b1786|30|1 1,0,0,0,0,0,0,0,0,0,0,0,0,0,0,1,
scooby_state_13acce6|17|1 1,0,0,0,0,0,0,0,0,0,0,0,0,0,0,1,
scooby_state_13b0f78|28|-4 1,0,0,0,0,0,0,0,0,0,0,0,0,0,0,1,
scooby_state_13b0c1e|52|1 1,0,0,0,0,0,0,0,0,0,0,0,0,0,0,1,
scooby_state_13acccd|12|1 1,0,0,0,0,0,0,0,0,0,0,0,0,0,0,1,
scooby_state_13ac4c2|19|1 1,0,0,0,0,0,0,0,0,0,0,0,0,0,0,1,
scooby_state_1668942|37|1 1,0,0,0,0,0,0,0,0,0,0,0,0,0,0,1,
scooby_state_1626507|20|1 1,0,0,0,0,0,0,0,0,0,0,0,0,0,0,1,
scooby_state_13acf81|62|1 1,0,0,0,0,0,0,0,0,0,0,0,0,0,0,1,
scooby_state_13b253b|20|2 1,0,0,0,0,0,0,0,0,0,0,0,0,0,0,1,
scooby_state_13ac600|8|1 1,0,0,0,0,0,0,0,0,0,0,0,0,0,0,1,
scooby_state_13af740|29|1 1,0,0,0,0,0,0,0,0,0,0,0,0,0,0,1,
scooby_state_13af807|39|-23 1,0,0,0,0,0,0,0,0,0,0,0,0,0,0,1,
scooby_state_13b0a95|34|1 1,0,0,0,0,0,0,0,0,0,0,0,0,0,0,1,
scooby_state_13abc8f|49|19 1,0,0,0,0,0,0,0,0,0,0,0,0,0,0,1,
scooby_state_13af75e|41|1 1,0,0,0,0,0,0,0,0,0,0,0,0,0,0,1,
scooby_state_1669d36|52|2 1,0,0,0,0,0,0,0,0,0,0,0,0,0,0,1,
scooby_state_1669f04|60|2 1,0,0,0,0,0,0,0,0,0,0,0,0,0,0,1,
scooby_state_13ac32f|62|34 1,0,0,0,0,0,0,0,0,0,0,0,0,0,0,1,
scooby_state_1668861|26|-6 1,0,0,0,0,0,0,0,0,0,0,0,0,0,0,1,
scooby_state_13b0b00|44|1 1,0,0,0,0,0,0,0,0,0,0,0,0,0,0,1,
scooby_state_13b2fc2|63|1 1,0,0,0,0,0,0,0,0,0,0,0,0,0,0,1,
scooby_state_1625f75|42|0 1,0,0,0,0,0,0,0,0,0,0,0,0,0,0,1,
scooby_state_16800c1|3|1 1,0,0,0,0,0,0,0,0,0,0,0,0,0,0,1,
scooby_state_1626242|28|0 1,0,0,0,0,0,0,0,0,0,0,0,0,0,0,1,
scooby_state_13acce6|13|1 1,0,0,0,0,0,0,0,0,0,0,0,0,0,0,1,
scooby_state_1625f56|20|0 1,0,0,0,0,0,0,0,0,0,0,0,0,0,0,1,
scooby_state_15f3c80|50|0 1,0,0,0,0,0,0,0,0,0,0,0,0,0,0,1,
scooby_state_13b14c2|19|1 1,0,0,0,0,0,0,0,0,0,0,0,0,0,0,1,
scooby_state_15f2450|17|0 1,0,0,0,0,0,0,0,0,0,0,0,0,0,0,1,
scooby_state_13b1cc6|51|1 1,0,0,0,0,0,0,0,0,0,0,0,0,0,0,1,
scooby_state_1626752|31|1 1,0,0,0,0,0,0,0,0,0,0,0,0,0,0,1,
scooby_state_13acccd|14|1 1,0,0,0,0,0,0,0,0,0,0,0,0,0,0,1,
scooby_state_13ac12e|4|0 1,0,0,0,0,0,0,0,0,0,0,0,0,0,0,1,
scooby_state_166c3a9|53|9 1,0,0,0,0,0,0,0,0,0,0,0,0,0,0,1,
scooby_state_166886d|22|4 1,0,0,0,0,0,0,0,0,0,0,0,0,0,0,1,
scooby_state_1680090|2|2 1,0,0,0,0,0,0,0,0,0,0,0,0,0,0,1,
scooby_state_16800ed|58|1 1,0,0,0,0,0,0,0,0,0,0,0,0,0,0,1,
scooby_state_13af75e|11|0 1,0,0,0,0,0,0,0,0,0,0,0,0,0,0,1,
scooby_state_15f3cfe|51|1 1,0,0,0,0,0,0,0,0,0,0,0,0,0,0,1,
scooby_state_13b3081|2|1 1,0,0,0,0,0,0,0,0,0,0,0,0,0,0,1,
scooby_state_13af75e|19|1 1,0,0,0,0,0,0,0,0,0,0,0,0,0,0,1,
scooby_state_13b2280|10|1 1,0,0,0,0,0,0,0,0,0,0,0,0,0,0,1,
scooby_state_13b0a95|36|1 1,0,0,0,0,0,0,0,0,0,0,0,0,0,0,1,
scooby_state_13abe45|57|1 1,0,0,0,0,0,0,0,0,0,0,0,0,0,0,1,
scooby_state_13ad1bd|47|-4 1,0,0,0,0,0,0,0,0,0,0,0,0,0,0,1,
scooby_state_13b2883|34|1 1,0,0,0,0,0,0,0,0,0,0,0,0,0,0,1,
scooby_state_13b0a95|57|1 1,0,0,0,0,0,0,0,0,0,0,0,0,0,0,1,
scooby_state_1626220|8|0 1,0,0,0,0,0,0,0,0,0,0,0,0,0,0,1,
scooby_state_13b29c2|39|1 1,0,0,0,0,0,0,0,0,0,0,0,0,0,0,1,
scooby_state_13aca81|42|1 1,0,0,0,0,0,0,0,0,0,0,0,0,0,0,1,
scooby_state_13b0bbb|14|1 1,0,0,0,0,0,0,0,0,0,0,0,0,0,0,1,
scooby_state_13b0f80|55|1 1,0,0,0,0,0,0,0,0,0,0,0,0,0,0,1,
scooby_state_13abb47|29|1 1,0,0,0,0,0,0,0,0,0,0,0,0,0,0,1,
scooby_state_13aedd4|59|5 1,0,0,0,0,0,0,0,0,0,0,0,0,0,0,1,
scooby_state_13ac501|20|1 1,0,0,0,0,0,0,0,0,0,0,0,0,0,0,1,
scooby_state_13b2005|63|6 1,0,0,0,0,0,0,0,0,0,0,0,0,0,0,1,
scooby_state_1626582|22|1 1,0,0,0,0,0,0,0,0,0,0,0,0,0,0,1,
scooby_state_1626742|29|1 1,0,0,0,0,0,0,0,0,0,0,0,0,0,0,1,
scooby_state_13acccd|9|1 1,0,0,0,0,0,0,0,0,0,0,0,0,0,0,1,
scooby_state_13b02c2|11|1 1,0,0,0,0,0,0,0,0,0,0,0,0,0,0,1,
scooby_state_13ac0c2|3|-52 1,0,0,0,0,0,0,0,0,0,0,0,0,0,0,1,
scooby_state_13b0cdf|60|1 1,0,0,0,0,0,0,0,0,0,0,0,0,0,0,1,
scooby_state_13b0e94|46|1 1,0,0,0,0,0,0,0,0,0,0,0,0,0,0,1,
scooby_state_13ad198|6|1 1,0,0,0,0,0,0,0,0,0,0,0,0,0,0,1,
scooby_state_13af721|28|-33 1,0,0,0,0,0,0,0,0,0,0,0,0,0,0,1,
scooby_state_13b2f82|62|1 1,0,0,0,0,0,0,0,0,0,0,0,0,0,0,1,
scooby_state_13b0ec7|59|3 1,0,0,0,0,0,0,0,0,0,0,0,0,0,0,1,
scooby_state_16800ed|11|1 1,0,0,0,0,0,0,0,0,0,0,0,0,0,0,1,

scooby_action_32_deg_dist 0,1,0,0,0,0,0,0,0,0,0,0,0,0,0,0,
scooby_action_3_deg_dist 0,7,0,0,0,0,0,0,0,0,0,0,0,0,0,0,
scooby_action_1_deg_dist 0,401,206,0,349,0,758,0,0,0,0,0,0,0,0,0,

scooby_track_called 1722
scooby_track_same_address 219
scooby_track_evict 1247

scooby_reward_demand_called 1722
scooby_reward_demand_pt_not_found 636
scooby_reward_demand_pt_found 1086
scooby_reward_demand_pt_found_total 1086
scooby_reward_demand_has_reward 68
scooby_reward_train_called 355
scooby_reward_assign_reward_called 1400
scooby_reward_no_pref 0
scooby_reward_incorrect 355
scooby_reward_correct_untimely 800
scooby_reward_correct_timely 218
scooby_reward_out_of_bounds 27
scooby_reward_tracker_hit 0

scooby_reward_none_low_bw 0
scooby_reward_none_high_bw 0
scooby_reward_incorrect_low_bw 355
scooby_reward_incorrect_high_bw 0
scooby_reward_correct_untimely_low_bw 800
scooby_reward_correct_untimely_high_bw 0
scooby_reward_correct_timely_low_bw 218
scooby_reward_correct_timely_high_bw 0
scooby_reward_out_of_bounds_low_bw 27
scooby_reward_out_of_bounds_high_bw 0
scooby_reward_tracker_hit_low_bw 0
scooby_reward_tracker_hit_high_bw 0

scooby_reward_1 0,353,800,216,26,0,
scooby_reward_3 0,2,0,2,0,0,
scooby_reward_4 0,0,0,0,0,0,
scooby_reward_5 0,0,0,0,0,0,
scooby_reward_10 0,0,0,0,0,0,
scooby_reward_11 0,0,0,0,0,0,
scooby_reward_12 0,0,0,0,0,0,
scooby_reward_22 0,0,0,0,0,0,
scooby_reward_23 0,0,0,0,0,0,
scooby_reward_30 0,0,0,0,0,0,
scooby_reward_32 0,0,0,0,1,0,
scooby_reward_-1 0,0,0,0,0,0,
scooby_reward_-3 0,0,0,0,0,0,
scooby_reward_-6 0,0,0,0,0,0,
scooby_reward_0 0,0,0,0,0,0,

scooby_train_called 1246
scooby_train_compute_reward 355

scooby_register_fill_called 1175
scooby_register_fill_set 331
scooby_register_fill_set_total 331

scooby_register_prefetch_hit_called 3239
scooby_register_prefetch_hit_set 1213
scooby_register_prefetch_hit_set_total 1213

scooby_pref_issue_scooby 5463

learning_engine_featurewise.action.called 1722
learning_engine_featurewise.action.explore 2
learning_engine_featurewise.action.exploit 1720
learning_engine_featurewise.action.fallback 0
learning_engine_featurewise.action.dyn_fallback_saved_bw 0
learning_engine_featurewise.action.dyn_fallback_saved_bw_acc 290
learning_engine_featurewise.action.index_1_explored 1
learning_engine_featurewise.action.index_1_exploited 1713
learning_engine_featurewise.action.index_3_explored 0
learning_engine_featurewise.action.index_3_exploited 7
learning_engine_featurewise.action.index_4_explored 0
learning_engine_featurewise.action.index_4_exploited 0
learning_engine_featurewise.action.index_5_explored 0
learning_engine_featurewise.action.index_5_exploited 0
learning_engine_featurewise.action.index_10_explored 0
learning_engine_featurewise.action.index_10_exploited 0
learning_engine_featurewise.action.index_11_explored 0
learning_engine_featurewise.action.index_11_exploited 0
learning_engine_featurewise.action.index_12_explored 0
learning_engine_featurewise.action.index_12_exploited 0
learning_engine_featurewise.action.index_22_explored 0
learning_engine_featurewise.action.index_22_exploited 0
learning_engine_featurewise.action.index_23_explored 0
learning_engine_featurewise.action.index_23_exploited 0
learning_engine_featurewise.action.index_30_explored 0
learning_engine_featurewise.action.index_30_exploited 0
learning_engine_featurewise.action.index_32_explored 1
learning_engine_featurewise.action.index_32_exploited 0
learning_engine_featurewise.action.index_-1_explored 0
learning_engine_featurewise.action.index_-1_exploited 0
learning_engine_featurewise.action.index_-3_explored 0
learning_engine_featurewise.action.index_-3_exploited 0
learning_engine_featurewise.action.index_-6_explored 0
learning_engine_featurewise.action.index_-6_exploited 0
learning_engine_featurewise.action.index_0_explored 0
learning_engine_featurewise.action.index_0_exploited 0
learning_engine_featurewise.learn.called 1246
learning_engine_featurewise.learn.su_skip_PC 0
learning_engine_featurewise.learn.su_skip_PC_Delta 0

learning_engine_featurewise.q_value_histogram.bucket_0 0
learning_engine_featurewise.q_value_histogram.bucket_1 0
learning_engine_featurewise.q_value_histogram.bucket_2 0
learning_engine_featurewise.q_value_histogram.bucket_3 0
learning_engine_featurewise.q_value_histogram.bucket_4 1645
learning_engine_featurewise.q_value_histogram.bucket_5 75
learning_engine_featurewise.q_value_histogram.bucket_6 0
learning_engine_featurewise.q_value_histogram.bucket_7 0

learning_engine_featurewise.consensus.total 1720
learning_engine_featurewise.consensus.feature_align_PC 1651
learning_engine_featurewise.consensus.feature_align_PC_ratio 0.96
learning_engine_featurewise.consensus.feature_align_PC_Delta 1667
learning_engine_featurewise.consensus.feature_align_PC_Delta_ratio 0.97
learning_engine_featurewise.consensus.feature_align_all 1598
learning_engine_featurewise.consensus.feature_align_all_ratio 0.93

learning_engine_featurewise.feature_PC_min_weight 1000000.00000000
learning_engine_featurewise.feature_PC_max_weight 0.00000000
learning_engine_featurewise.feature_PC_Delta_min_weight 1000000.00000000
learning_engine_featurewise.feature_PC_Delta_max_weight 0.00000000
unique_pcs 566
unique_pages 118
unique_trigger_pcs 85
total_bitmaps_seen 0
unique_bitmaps_seen 0

scooby_bw_epochs 359261
scooby_bw_level_0 359150
scooby_bw_level_1 74
scooby_bw_level_2 32
scooby_bw_level_3 5

scooby_ipc_epochs 0
scooby_ipc_level_0 0
scooby_ipc_level_1 0
scooby_ipc_level_2 0
scooby_ipc_level_3 0

scooby_cache_acc_epochs 89811
scooby_cache_acc_level_0 89317
scooby_cache_acc_level_1 144
scooby_cache_acc_level_2 123
scooby_cache_acc_level_3 22
scooby_cache_acc_level_4 18
scooby_cache_acc_level_5 104
scooby_cache_acc_level_6 20
scooby_cache_acc_level_7 17
scooby_cache_acc_level_8 9
scooby_cache_acc_level_9 37

Channel_0_RQ_row_buffer_hit 583
Channel_0_RQ_row_buffer_miss 772
Channel_0_WQ_row_buffer_hit 0
Channel_0_WQ_row_buffer_miss 0
Channel_0_WQ_full 0
Channel_0_dbus_congested 387

avg_congested_cycle 10

DRAM_bw_pochs 359261
DRAM_bw_level_0 359150
DRAM_bw_level_1 74
DRAM_bw_level_2 32
DRAM_bw_level_3 5
