*************************************************
   ChampSim Multicore Out-of-Order Simulator
   Last compiled: Apr  3 2025 20:54:34
*************************************************
parsing config file: /home/zir/Pythia/config/pythia.ini

trace_0 /home/zir/ChampSim/ML-DPC/ChampSimTraces/spec17/605.mcf-s6.trace.xz
adding L2C_PREFETCHER: Scooby
Initialize SHIP state
warmup_instructions 10000000
simulation_instructions 50000000
champsim_seed 169
measure_ipc 0
measure_ipc_epoch 1000
measure_dram_bw 1
measure_dram_bw_epoch 256
measure_cache_acc 1
measure_cache_acc_epoch 1024
l1d_perfect 0
l2c_perfect 0
llc_perfect 0
l1d_semi_perfect 0
l2c_semi_perfect 0
llc_semi_perfect 0
semi_perfect_cache_page_buffer_size 64

num_cpus 1
cpu_freq 4000
dram_io_freq 2400
page_size 4096
block_size 64
max_read_per_cycle 8
max_fill_per_cycle 1
dram_channels 1
log2_dram_channels 0
dram_ranks 1
dram_banks 8
dram_rows 65536
dram_columns 128
dram_row_size 8
dram_size 4096
dram_pages 1048576

fetch_width 6
decode_width 6
exec_width 4
lq_width 2
sq_width 2
retire_width 4
scheduler_size 128
branch_mispredict_penalty 20
rob_size 256
lq_size 72
sq_size 56
num_instr_destinations_sparc 4
num_instr_destinations 2
num_instr_sources 4

itlb_set 16
itlb_way 8
itlb_rq_size 16
itlb_wq_size 16
itlb_pq_size 0
itlb_mshr_size 8
itlb_latency 1

dtlb_set 16
dtlb_way 4
dtlb_rq_size 16
dtlb_wq_size 16
dtlb_pq_size 0
dtlb_mshr_size 8
dtlb_latency 1

stlb_set 128
stlb_way 12
stlb_rq_size 32
stlb_wq_size 32
stlb_pq_size 0
stlb_mshr_size 16
stlb_latency 8

l1i_size 32
l1i_set 64
l1i_way 8
l1i_rq_size 64
l1i_wq_size 64
l1i_pq_size 8
l1i_mshr_size 8
l1i_latency 1

l1d_size 32
l1d_set 64
l1d_way 8
l1d_rq_size 64
l1d_wq_size 64
l1d_pq_size 8
l1d_mshr_size 16
l1d_latency 4

l2c_size 256
l2c_set 512
l2c_way 8
l2c_rq_size 32
l2c_wq_size 32
l2c_pq_size 32
l2c_mshr_size 32
l2c_latency 10

llc_size 2048
llc_set 2048
llc_way 16
llc_rq_size 32
llc_wq_size 32
llc_pq_size 32
llc_mshr_size 64
llc_latency 20

dram_channel_width 8
dram_wq_size 64
dram_rq_size 64
tRP 15
tRCD 15
tCAS 12.5
dram_dbus_turn_around_time 30
dram_write_high_wm 56
dram_write_low_wm 48
min_dram_writes_per_switch 16
dram_mtps 2400
dram_dbus_return_time 13

scooby_alpha 0.0065088
scooby_gamma 0.556301
scooby_epsilon 0.00182284
scooby_state_num_bits 10
scooby_max_states 1024
scooby_seed 200
scooby_policy EGreedy
scooby_learning_type SARSA
scooby_actions 1,3,4,5,10,11,12,22,23,30,32,-1,-3,-6,0,
scooby_max_actions 15
scooby_pt_size 256
scooby_st_size 64
scooby_max_pcs 5
scooby_max_offsets 5
scooby_max_deltas 5
scooby_reward_none -4
scooby_reward_incorrect -8
scooby_reward_correct_untimely 12
scooby_reward_correct_timely 20
scooby_brain_zero_init 0
scooby_enable_reward_all 0
scooby_enable_track_multiple 0
scooby_enable_reward_out_of_bounds 1
scooby_reward_out_of_bounds -12
scooby_state_type 1
scooby_state_hash_type 11
scooby_access_debug 0
scooby_print_access_debug 0
scooby_print_access_debug_pc deadbeef
scooby_print_access_debug_pc_count 0
scooby_print_trace 0
scooby_enable_state_action_stats 1
scooby_enable_reward_tracker_hit 0
scooby_reward_tracker_hit -2
scooby_enable_featurewise_engine 1
scooby_pref_degree 1
scooby_enable_dyn_degree 1
scooby_max_to_avg_q_thresholds 0.5,1,2,
scooby_dyn_degrees 1,2,4,4,
scooby_multi_deg_select_type 2
scooby_last_pref_offset_conf_thresholds 1,3,8,
scooby_dyn_degrees_type2 1,2,4,6,
scooby_action_tracker_size 2
scooby_high_bw_thresh 4
scooby_enable_hbw_reward 1
scooby_reward_hbw_correct_timely 20
scooby_reward_hbw_correct_untimely 12
scooby_reward_hbw_incorrect -14
scooby_reward_hbw_none -2
scooby_reward_hbw_out_of_bounds -12
scooby_reward_hbw_tracker_hit -2
scooby_last_pref_offset_conf_thresholds_hbw 1,3,8,
scooby_dyn_degrees_type2_hbw 1,2,4,6,

le_enable_trace 0
le_trace_interval 0
le_trace_file_name 
le_trace_state 0
le_enable_score_plot 0
le_plot_file_name 
le_plot_actions 
le_enable_action_trace 0
le_action_trace_interval 0
le_action_trace_name 
le_enable_action_plot 0

le_featurewise_active_features PC, PC_Delta
le_featurewise_num_tilings 3,3,
le_featurewise_num_tiles 128,128,
le_featurewise_hash_types 2,2,
le_featurewise_enable_tiling_offset 1,1,
le_featurewise_max_q_thresh 0.5
le_featurewise_enable_action_fallback 1
le_featurewise_feature_weights 1,1,
le_featurewise_enable_dynamic_weight 0
le_featurewise_weight_gradient 0.001
le_featurewise_disable_adjust_weight_all_features_align 1
le_featurewise_selective_update 0
le_featurewise_pooling_type 2
le_featurewise_enable_dyn_action_fallback 1
le_featurewise_bw_acc_check_level 1
le_featurewise_acc_thresh 2
le_featurewise_enable_trace 0
le_featurewise_trace_feature_type 0
le_featurewise_trace_feature 
le_featurewise_trace_interval 0
le_featurewise_trace_record_count 0
le_featurewise_trace_file_name 
le_featurewise_enable_score_plot 0
le_featurewise_plot_actions 
le_featurewise_plot_file_name 


Heartbeat CPU  0 instructions:    1000000 cycles:    1005087 heartbeat IPC: 0.99494 cumulative IPC: 0.99494 (Simulation time: 0 hr 0 min 2 sec) 
Heartbeat CPU  0 instructions:    2000000 cycles:    1992252 heartbeat IPC: 1.01300 cumulative IPC: 1.00389 (Simulation time: 0 hr 0 min 3 sec) 
Heartbeat CPU  0 instructions:    3000003 cycles:    2972371 heartbeat IPC: 1.02029 cumulative IPC: 1.00930 (Simulation time: 0 hr 0 min 5 sec) 
Heartbeat CPU  0 instructions:    4000000 cycles:    3959550 heartbeat IPC: 1.01298 cumulative IPC: 1.01022 (Simulation time: 0 hr 0 min 7 sec) 
Heartbeat CPU  0 instructions:    5000001 cycles:    4953570 heartbeat IPC: 1.00602 cumulative IPC: 1.00937 (Simulation time: 0 hr 0 min 8 sec) 
Heartbeat CPU  0 instructions:    6000001 cycles:    5943983 heartbeat IPC: 1.00968 cumulative IPC: 1.00942 (Simulation time: 0 hr 0 min 10 sec) 
Heartbeat CPU  0 instructions:    7000000 cycles:    6932812 heartbeat IPC: 1.01130 cumulative IPC: 1.00969 (Simulation time: 0 hr 0 min 11 sec) 
Heartbeat CPU  0 instructions:    8000000 cycles:    7922121 heartbeat IPC: 1.01081 cumulative IPC: 1.00983 (Simulation time: 0 hr 0 min 13 sec) 
Heartbeat CPU  0 instructions:    9000000 cycles:    8917521 heartbeat IPC: 1.00462 cumulative IPC: 1.00925 (Simulation time: 0 hr 0 min 14 sec) 
Heartbeat CPU  0 instructions:   10000001 cycles:    9917806 heartbeat IPC: 0.99972 cumulative IPC: 1.00829 (Simulation time: 0 hr 0 min 16 sec) 

Warmup complete CPU  0 instructions:   10000001 cycles:    9917806 (Simulation time: 0 hr 0 min 16 sec) 

Heartbeat CPU  0 instructions:   11000001 cycles:   13485866 heartbeat IPC: 0.28026 cumulative IPC: 0.28026 (Simulation time: 0 hr 0 min 18 sec) 
Heartbeat CPU  0 instructions:   12000000 cycles:   17143261 heartbeat IPC: 0.27342 cumulative IPC: 0.27680 (Simulation time: 0 hr 0 min 20 sec) 
Heartbeat CPU  0 instructions:   13000001 cycles:   20707120 heartbeat IPC: 0.28060 cumulative IPC: 0.27805 (Simulation time: 0 hr 0 min 23 sec) 
Heartbeat CPU  0 instructions:   14000001 cycles:   24293842 heartbeat IPC: 0.27881 cumulative IPC: 0.27824 (Simulation time: 0 hr 0 min 25 sec) 
Heartbeat CPU  0 instructions:   15000000 cycles:   27953756 heartbeat IPC: 0.27323 cumulative IPC: 0.27722 (Simulation time: 0 hr 0 min 27 sec) 
Heartbeat CPU  0 instructions:   16000000 cycles:   31585525 heartbeat IPC: 0.27535 cumulative IPC: 0.27691 (Simulation time: 0 hr 0 min 30 sec) 
Heartbeat CPU  0 instructions:   17000001 cycles:   35149043 heartbeat IPC: 0.28062 cumulative IPC: 0.27743 (Simulation time: 0 hr 0 min 32 sec) 
Heartbeat CPU  0 instructions:   18000000 cycles:   38743166 heartbeat IPC: 0.27823 cumulative IPC: 0.27753 (Simulation time: 0 hr 0 min 34 sec) 
Heartbeat CPU  0 instructions:   19000002 cycles:   42343086 heartbeat IPC: 0.27778 cumulative IPC: 0.27756 (Simulation time: 0 hr 0 min 36 sec) 
Heartbeat CPU  0 instructions:   20000000 cycles:   45905583 heartbeat IPC: 0.28070 cumulative IPC: 0.27787 (Simulation time: 0 hr 0 min 39 sec) 
Heartbeat CPU  0 instructions:   21000002 cycles:   49306647 heartbeat IPC: 0.29403 cumulative IPC: 0.27927 (Simulation time: 0 hr 0 min 41 sec) 
Heartbeat CPU  0 instructions:   22000001 cycles:   52813363 heartbeat IPC: 0.28517 cumulative IPC: 0.27975 (Simulation time: 0 hr 0 min 43 sec) 
Heartbeat CPU  0 instructions:   23000003 cycles:   56370920 heartbeat IPC: 0.28109 cumulative IPC: 0.27985 (Simulation time: 0 hr 0 min 45 sec) 
Heartbeat CPU  0 instructions:   24000000 cycles:   59918697 heartbeat IPC: 0.28187 cumulative IPC: 0.27999 (Simulation time: 0 hr 0 min 48 sec) 
Heartbeat CPU  0 instructions:   25000001 cycles:   63500645 heartbeat IPC: 0.27918 cumulative IPC: 0.27994 (Simulation time: 0 hr 0 min 50 sec) 
Heartbeat CPU  0 instructions:   26000001 cycles:   67110914 heartbeat IPC: 0.27699 cumulative IPC: 0.27975 (Simulation time: 0 hr 0 min 52 sec) 
Heartbeat CPU  0 instructions:   27000002 cycles:   70714817 heartbeat IPC: 0.27748 cumulative IPC: 0.27962 (Simulation time: 0 hr 0 min 55 sec) 
Heartbeat CPU  0 instructions:   28000000 cycles:   74307812 heartbeat IPC: 0.27832 cumulative IPC: 0.27955 (Simulation time: 0 hr 0 min 57 sec) 
Heartbeat CPU  0 instructions:   29000000 cycles:   77890186 heartbeat IPC: 0.27914 cumulative IPC: 0.27953 (Simulation time: 0 hr 0 min 59 sec) 
Heartbeat CPU  0 instructions:   30000001 cycles:   81446549 heartbeat IPC: 0.28119 cumulative IPC: 0.27961 (Simulation time: 0 hr 1 min 1 sec) 
Heartbeat CPU  0 instructions:   31000001 cycles:   85048612 heartbeat IPC: 0.27762 cumulative IPC: 0.27951 (Simulation time: 0 hr 1 min 4 sec) 
Heartbeat CPU  0 instructions:   32000000 cycles:   88635344 heartbeat IPC: 0.27881 cumulative IPC: 0.27948 (Simulation time: 0 hr 1 min 6 sec) 
Heartbeat CPU  0 instructions:   33000002 cycles:   92215084 heartbeat IPC: 0.27935 cumulative IPC: 0.27947 (Simulation time: 0 hr 1 min 8 sec) 
Heartbeat CPU  0 instructions:   34000000 cycles:   95788058 heartbeat IPC: 0.27988 cumulative IPC: 0.27949 (Simulation time: 0 hr 1 min 11 sec) 
Heartbeat CPU  0 instructions:   35000000 cycles:   99350354 heartbeat IPC: 0.28072 cumulative IPC: 0.27954 (Simulation time: 0 hr 1 min 13 sec) 
Heartbeat CPU  0 instructions:   36000000 cycles:  103001308 heartbeat IPC: 0.27390 cumulative IPC: 0.27932 (Simulation time: 0 hr 1 min 15 sec) 
Heartbeat CPU  0 instructions:   37000000 cycles:  106629659 heartbeat IPC: 0.27561 cumulative IPC: 0.27918 (Simulation time: 0 hr 1 min 17 sec) 
Heartbeat CPU  0 instructions:   38000000 cycles:  110246105 heartbeat IPC: 0.27651 cumulative IPC: 0.27908 (Simulation time: 0 hr 1 min 20 sec) 
Heartbeat CPU  0 instructions:   39000002 cycles:  113779127 heartbeat IPC: 0.28304 cumulative IPC: 0.27922 (Simulation time: 0 hr 1 min 22 sec) 
Heartbeat CPU  0 instructions:   40000000 cycles:  117329065 heartbeat IPC: 0.28169 cumulative IPC: 0.27930 (Simulation time: 0 hr 1 min 24 sec) 
Heartbeat CPU  0 instructions:   41000001 cycles:  120929994 heartbeat IPC: 0.27771 cumulative IPC: 0.27925 (Simulation time: 0 hr 1 min 27 sec) 
Heartbeat CPU  0 instructions:   42000001 cycles:  124578888 heartbeat IPC: 0.27406 cumulative IPC: 0.27908 (Simulation time: 0 hr 1 min 29 sec) 
Heartbeat CPU  0 instructions:   43000002 cycles:  128175256 heartbeat IPC: 0.27806 cumulative IPC: 0.27905 (Simulation time: 0 hr 1 min 31 sec) 
Heartbeat CPU  0 instructions:   44000000 cycles:  131711925 heartbeat IPC: 0.28275 cumulative IPC: 0.27916 (Simulation time: 0 hr 1 min 33 sec) 
Heartbeat CPU  0 instructions:   45000003 cycles:  135118915 heartbeat IPC: 0.29352 cumulative IPC: 0.27955 (Simulation time: 0 hr 1 min 35 sec) 
Heartbeat CPU  0 instructions:   46000001 cycles:  138624993 heartbeat IPC: 0.28522 cumulative IPC: 0.27970 (Simulation time: 0 hr 1 min 38 sec) 
Heartbeat CPU  0 instructions:   47000000 cycles:  142216841 heartbeat IPC: 0.27841 cumulative IPC: 0.27967 (Simulation time: 0 hr 1 min 40 sec) 
Heartbeat CPU  0 instructions:   48000000 cycles:  145812090 heartbeat IPC: 0.27814 cumulative IPC: 0.27963 (Simulation time: 0 hr 1 min 42 sec) 
Heartbeat CPU  0 instructions:   49000001 cycles:  149424220 heartbeat IPC: 0.27685 cumulative IPC: 0.27956 (Simulation time: 0 hr 1 min 45 sec) 
Heartbeat CPU  0 instructions:   50000003 cycles:  152980916 heartbeat IPC: 0.28116 cumulative IPC: 0.27960 (Simulation time: 0 hr 1 min 47 sec) 
Heartbeat CPU  0 instructions:   51000001 cycles:  156549630 heartbeat IPC: 0.28021 cumulative IPC: 0.27961 (Simulation time: 0 hr 1 min 49 sec) 
Heartbeat CPU  0 instructions:   52000000 cycles:  160150385 heartbeat IPC: 0.27772 cumulative IPC: 0.27957 (Simulation time: 0 hr 1 min 51 sec) 
Heartbeat CPU  0 instructions:   53000000 cycles:  163751916 heartbeat IPC: 0.27766 cumulative IPC: 0.27952 (Simulation time: 0 hr 1 min 54 sec) 
Heartbeat CPU  0 instructions:   54000002 cycles:  167378859 heartbeat IPC: 0.27571 cumulative IPC: 0.27943 (Simulation time: 0 hr 1 min 56 sec) 
Heartbeat CPU  0 instructions:   55000000 cycles:  171017595 heartbeat IPC: 0.27482 cumulative IPC: 0.27933 (Simulation time: 0 hr 1 min 58 sec) 
Heartbeat CPU  0 instructions:   56000000 cycles:  174640013 heartbeat IPC: 0.27606 cumulative IPC: 0.27926 (Simulation time: 0 hr 2 min 0 sec) 
Heartbeat CPU  0 instructions:   57000001 cycles:  178221522 heartbeat IPC: 0.27921 cumulative IPC: 0.27926 (Simulation time: 0 hr 2 min 3 sec) 
Heartbeat CPU  0 instructions:   58000000 cycles:  181840905 heartbeat IPC: 0.27629 cumulative IPC: 0.27919 (Simulation time: 0 hr 2 min 5 sec) 
Heartbeat CPU  0 instructions:   59000001 cycles:  185360290 heartbeat IPC: 0.28414 cumulative IPC: 0.27929 (Simulation time: 0 hr 2 min 7 sec) 
Heartbeat CPU  0 instructions:   60000000 cycles:  188902377 heartbeat IPC: 0.28232 cumulative IPC: 0.27935 (Simulation time: 0 hr 2 min 10 sec) 
Finished CPU 0 instructions: 50000000 cycles: 178984584 cumulative IPC: 0.27935 (Simulation time: 0 hr 2 min 10 sec) 

ChampSim completed all CPUs

[ROI Statistics]
Core_0_instructions 50000000
Core_0_cycles 178984584
Core_0_IPC 0.27935

Core_0_branch_prediction_accuracy 90.26518
Core_0_branch_MPKI 19.07442
Core_0_average_ROB_occupancy_at_mispredict 50.06198

Core_0_L1D_total_access 19181156
Core_0_L1D_total_hit 17080341
Core_0_L1D_total_miss 2100815
Core_0_L1D_loads 13779462
Core_0_L1D_load_hit 11875238
Core_0_L1D_load_miss 1904224
Core_0_L1D_RFOs 5401694
Core_0_L1D_RFO_hit 5205103
Core_0_L1D_RFO_miss 196591
Core_0_L1D_prefetches 0
Core_0_L1D_prefetch_hit 0
Core_0_L1D_prefetch_miss 0
Core_0_L1D_writebacks 0
Core_0_L1D_writeback_hit 0
Core_0_L1D_writeback_miss 0
Core_0_L1D_prefetch_requested 0
Core_0_L1D_prefetch_dropped 0
Core_0_L1D_prefetch_issued 0
Core_0_L1D_prefetch_filled 0
Core_0_L1D_prefetch_useful 0
Core_0_L1D_prefetch_useless 0
Core_0_L1D_prefetch_late 0
Core_0_L1D_average_miss_latency 58.56063

Core_0_L1D_rq_access 16739284
Core_0_L1D_rq_forward 0
Core_0_L1D_rq_merged 2874246
Core_0_L1D_rq_to_cache 13849737
Core_0_L1D_rq_full 0

Core_0_L1D_wq_access 5753550
Core_0_L1D_wq_forward 15301
Core_0_L1D_wq_merged 11678
Core_0_L1D_wq_to_cache 5741872
Core_0_L1D_wq_full 0

Core_0_L1D_pq_access 0
Core_0_L1D_pq_forward 0
Core_0_L1D_pq_merged 0
Core_0_L1D_pq_to_cache 0
Core_0_L1D_pq_full 0

Core_0_L1D_acc_epochs 183166
Core_0_L1D_acc_level_0 183166
Core_0_L1D_acc_level_1 0
Core_0_L1D_acc_level_2 0
Core_0_L1D_acc_level_3 0
Core_0_L1D_acc_level_4 0
Core_0_L1D_acc_level_5 0
Core_0_L1D_acc_level_6 0
Core_0_L1D_acc_level_7 0
Core_0_L1D_acc_level_8 0
Core_0_L1D_acc_level_9 0

Core_0_L1I_total_access 10180860
Core_0_L1I_total_hit 10180860
Core_0_L1I_total_miss 0
Core_0_L1I_loads 10180860
Core_0_L1I_load_hit 10180860
Core_0_L1I_load_miss 0
Core_0_L1I_RFOs 0
Core_0_L1I_RFO_hit 0
Core_0_L1I_RFO_miss 0
Core_0_L1I_prefetches 0
Core_0_L1I_prefetch_hit 0
Core_0_L1I_prefetch_miss 0
Core_0_L1I_writebacks 0
Core_0_L1I_writeback_hit 0
Core_0_L1I_writeback_miss 0
Core_0_L1I_prefetch_requested 0
Core_0_L1I_prefetch_dropped 0
Core_0_L1I_prefetch_issued 0
Core_0_L1I_prefetch_filled 0
Core_0_L1I_prefetch_useful 0
Core_0_L1I_prefetch_useless 0
Core_0_L1I_prefetch_late 0
Core_0_L1I_average_miss_latency -nan

Core_0_L1I_rq_access 49999981
Core_0_L1I_rq_forward 0
Core_0_L1I_rq_merged 39819121
Core_0_L1I_rq_to_cache 10180860
Core_0_L1I_rq_full 0

Core_0_L1I_wq_access 0
Core_0_L1I_wq_forward 0
Core_0_L1I_wq_merged 0
Core_0_L1I_wq_to_cache 0
Core_0_L1I_wq_full 0

Core_0_L1I_pq_access 0
Core_0_L1I_pq_forward 0
Core_0_L1I_pq_merged 0
Core_0_L1I_pq_to_cache 0
Core_0_L1I_pq_full 0

Core_0_L1I_acc_epochs 183166
Core_0_L1I_acc_level_0 183166
Core_0_L1I_acc_level_1 0
Core_0_L1I_acc_level_2 0
Core_0_L1I_acc_level_3 0
Core_0_L1I_acc_level_4 0
Core_0_L1I_acc_level_5 0
Core_0_L1I_acc_level_6 0
Core_0_L1I_acc_level_7 0
Core_0_L1I_acc_level_8 0
Core_0_L1I_acc_level_9 0

Core_0_L2C_total_access 6096523
Core_0_L2C_total_hit 3715049
Core_0_L2C_total_miss 2381474
Core_0_L2C_loads 1904217
Core_0_L2C_load_hit 952074
Core_0_L2C_load_miss 952143
Core_0_L2C_RFOs 196582
Core_0_L2C_RFO_hit 37168
Core_0_L2C_RFO_miss 159414
Core_0_L2C_prefetches 3715291
Core_0_L2C_prefetch_hit 2446253
Core_0_L2C_prefetch_miss 1269038
Core_0_L2C_writebacks 280433
Core_0_L2C_writeback_hit 279554
Core_0_L2C_writeback_miss 879
Core_0_L2C_prefetch_requested 4306851
Core_0_L2C_prefetch_dropped 2542
Core_0_L2C_prefetch_issued 4304309
Core_0_L2C_prefetch_filled 1529525
Core_0_L2C_prefetch_useful 602180
Core_0_L2C_prefetch_useless 925816
Core_0_L2C_prefetch_late 2193
Core_0_L2C_average_miss_latency 104.23083

Core_0_L2C_rq_access 2100815
Core_0_L2C_rq_forward 0
Core_0_L2C_rq_merged 0
Core_0_L2C_rq_to_cache 2100799
Core_0_L2C_rq_full 0

Core_0_L2C_wq_access 280433
Core_0_L2C_wq_forward 19
Core_0_L2C_wq_merged 0
Core_0_L2C_wq_to_cache 280433
Core_0_L2C_wq_full 0

Core_0_L2C_pq_access 4304309
Core_0_L2C_pq_forward 0
Core_0_L2C_pq_merged 2264
Core_0_L2C_pq_to_cache 4302042
Core_0_L2C_pq_full 0

Core_0_L2C_acc_epochs 183166
Core_0_L2C_acc_level_0 67396
Core_0_L2C_acc_level_1 19081
Core_0_L2C_acc_level_2 20889
Core_0_L2C_acc_level_3 15563
Core_0_L2C_acc_level_4 11334
Core_0_L2C_acc_level_5 18974
Core_0_L2C_acc_level_6 11978
Core_0_L2C_acc_level_7 5826
Core_0_L2C_acc_level_8 2768
Core_0_L2C_acc_level_9 9357

Core_0_LLC_total_access 2593919
Core_0_LLC_total_hit 1706223
Core_0_LLC_total_miss 887696
Core_0_LLC_loads 950083
Core_0_LLC_load_hit 657350
Core_0_LLC_load_miss 292733
Core_0_LLC_RFOs 159413
Core_0_LLC_RFO_hit 159114
Core_0_LLC_RFO_miss 299
Core_0_LLC_prefetches 1271094
Core_0_LLC_prefetch_hit 676503
Core_0_LLC_prefetch_miss 594591
Core_0_LLC_writebacks 213329
Core_0_LLC_writeback_hit 213256
Core_0_LLC_writeback_miss 73
Core_0_LLC_prefetch_requested 0
Core_0_LLC_prefetch_dropped 0
Core_0_LLC_prefetch_issued 0
Core_0_LLC_prefetch_filled 723788
Core_0_LLC_prefetch_useful 37308
Core_0_LLC_prefetch_useless 673342
Core_0_LLC_prefetch_late 0
Core_0_LLC_average_miss_latency 198.33092

Core_0_LLC_rq_access 1109499
Core_0_LLC_rq_forward 0
Core_0_LLC_rq_merged 0
Core_0_LLC_rq_to_cache 1109496
Core_0_LLC_rq_full 0

Core_0_LLC_wq_access 213329
Core_0_LLC_wq_forward 5
Core_0_LLC_wq_merged 0
Core_0_LLC_wq_to_cache 213329
Core_0_LLC_wq_full 0

Core_0_LLC_pq_access 1531718
Core_0_LLC_pq_forward 0
Core_0_LLC_pq_merged 0
Core_0_LLC_pq_to_cache 1531716
Core_0_LLC_pq_full 0

Core_0_LLC_acc_epochs 184475
Core_0_LLC_acc_level_0 149816
Core_0_LLC_acc_level_1 13184
Core_0_LLC_acc_level_2 8692
Core_0_LLC_acc_level_3 2651
Core_0_LLC_acc_level_4 686
Core_0_LLC_acc_level_5 5973
Core_0_LLC_acc_level_6 999
Core_0_LLC_acc_level_7 762
Core_0_LLC_acc_level_8 249
Core_0_LLC_acc_level_9 1463

Core_0_major_page_fault 0
Core_0_minor_page_fault 9860

scooby_st_lookup 2285750
scooby_st_hit 1353807
scooby_st_evict 931879
scooby_st_insert 931943
scooby_st_streaming 0

scooby_predict_called 2285750
scooby_predict_out_of_bounds 123557
scooby_predict_action_1 1357670
scooby_predict_issue_action_1 1335205
scooby_predict_hit_action_1 22465
scooby_predict_out_of_bounds_action_1 20250
scooby_predict_action_3 94040
scooby_predict_issue_action_3 40416
scooby_predict_hit_action_3 53624
scooby_predict_out_of_bounds_action_3 4729
scooby_predict_action_4 16708
scooby_predict_issue_action_4 15887
scooby_predict_hit_action_4 821
scooby_predict_out_of_bounds_action_4 941
scooby_predict_action_5 37722
scooby_predict_issue_action_5 36989
scooby_predict_hit_action_5 733
scooby_predict_out_of_bounds_action_5 3308
scooby_predict_action_10 411294
scooby_predict_issue_action_10 410297
scooby_predict_hit_action_10 997
scooby_predict_out_of_bounds_action_10 76621
scooby_predict_action_11 7149
scooby_predict_issue_action_11 6789
scooby_predict_hit_action_11 360
scooby_predict_out_of_bounds_action_11 1692
scooby_predict_action_12 6314
scooby_predict_issue_action_12 5948
scooby_predict_hit_action_12 366
scooby_predict_out_of_bounds_action_12 1589
scooby_predict_action_22 4533
scooby_predict_issue_action_22 4234
scooby_predict_hit_action_22 299
scooby_predict_out_of_bounds_action_22 2400
scooby_predict_action_23 4484
scooby_predict_issue_action_23 4196
scooby_predict_hit_action_23 288
scooby_predict_out_of_bounds_action_23 2527
scooby_predict_action_30 3461
scooby_predict_issue_action_30 3280
scooby_predict_hit_action_30 181
scooby_predict_out_of_bounds_action_30 3055
scooby_predict_action_32 4019
scooby_predict_issue_action_32 3833
scooby_predict_hit_action_32 186
scooby_predict_out_of_bounds_action_32 4067
scooby_predict_action_-1 80648
scooby_predict_issue_action_-1 75669
scooby_predict_hit_action_-1 4979
scooby_predict_out_of_bounds_action_-1 1332
scooby_predict_action_-3 8352
scooby_predict_issue_action_-3 7742
scooby_predict_hit_action_-3 610
scooby_predict_out_of_bounds_action_-3 348
scooby_predict_action_-6 7623
scooby_predict_issue_action_-6 7113
scooby_predict_hit_action_-6 510
scooby_predict_out_of_bounds_action_-6 698
scooby_predict_action_0 118176
scooby_predict_issue_action_0 0
scooby_predict_hit_action_0 0
scooby_predict_out_of_bounds_action_0 0
scooby_predict_multi_deg_called 818094
scooby_predict_predicted 4306851
scooby_predict_multi_deg 2349253
scooby_predict_multi_deg_2 733768
scooby_predict_multi_deg_3 574313
scooby_predict_multi_deg_4 492926
scooby_predict_multi_deg_5 286357
scooby_predict_multi_deg_6 261889
scooby_predict_multi_deg_7 0
scooby_predict_multi_deg_8 0
scooby_predict_multi_deg_9 0
scooby_predict_multi_deg_10 0
scooby_predict_multi_deg_11 0
scooby_predict_multi_deg_12 0
scooby_predict_multi_deg_13 0
scooby_predict_multi_deg_14 0
scooby_predict_multi_deg_15 0
scooby_predict_multi_deg_16 0

scooby_selected_deg_1 1139504
scooby_selected_deg_2 79576
scooby_selected_deg_3 0
scooby_selected_deg_4 134552
scooby_selected_deg_5 0
scooby_selected_deg_6 603966
scooby_selected_deg_7 0
scooby_selected_deg_8 0
scooby_selected_deg_9 0
scooby_selected_deg_10 0
scooby_selected_deg_11 0
scooby_selected_deg_12 0
scooby_selected_deg_13 0
scooby_selected_deg_14 0
scooby_selected_deg_15 0
scooby_selected_deg_16 0

scooby_state_4049e5|42|0 7033,8,70,276,3,9,2,9,2,0,4,5,3,2,991,8417,
scooby_state_4049e5|39|0 6671,8,71,199,4,7,0,3,2,2,2,4,7,5,926,7911,
scooby_state_4049e5|22|0 6174,4,54,437,1,3,2,4,2,2,0,2,1,5,854,7545,
scooby_state_4049e5|11|0 6260,6,64,225,4,3,3,7,2,3,3,0,4,3,944,7531,
scooby_state_4049e5|23|0 6001,5,63,560,2,6,1,0,2,4,2,3,2,3,804,7458,
scooby_state_4049cc|0|0 0,2,0,1,7323,1,3,2,1,3,37,0,1,0,1,7375,
scooby_state_4049e5|25|0 6048,6,112,136,4,9,3,1,5,2,5,2,3,6,817,7159,
scooby_state_4049e5|40|0 5947,9,63,224,5,6,2,4,1,1,3,3,0,1,824,7093,
scooby_state_4049e5|50|0 5843,12,55,360,3,9,1,2,5,2,4,5,3,1,777,7082,
scooby_state_4049e5|12|0 5878,2,81,305,2,4,3,4,2,4,5,2,1,3,777,7073,
scooby_state_4049e5|16|0 5800,7,93,312,3,5,5,2,3,3,3,5,4,2,765,7012,
scooby_state_4049de|16|0 5990,3,3,1,4,6,0,2,6,2,5,8,6,2,950,6988,
scooby_state_4049e5|20|0 5744,8,85,208,3,3,7,1,2,3,1,3,3,2,854,6927,
scooby_state_4049de|14|0 5887,2,3,11,6,4,2,3,7,3,2,5,2,7,934,6878,
scooby_state_4049e5|21|0 5741,5,69,168,3,3,3,2,1,2,2,4,2,1,829,6835,
scooby_state_4049de|44|0 5844,4,6,5,4,5,3,2,1,3,3,4,1,6,901,6792,
scooby_state_4049e5|10|0 5595,6,68,153,2,3,1,2,3,2,3,2,4,1,795,6640,
scooby_state_4049de|7|0 5706,3,4,5,3,3,6,3,2,3,3,5,4,4,867,6621,
scooby_state_4049de|17|0 5714,2,4,2,1,4,3,5,4,2,4,3,6,5,859,6618,
scooby_state_4049de|36|0 5689,8,2,7,3,1,7,3,1,4,4,5,6,4,868,6612,
scooby_state_4049e5|41|0 5480,9,103,259,4,7,3,4,3,1,4,2,3,1,726,6609,
scooby_state_4049de|4|0 5671,1,1,3,0,3,8,4,2,2,2,9,4,4,889,6603,
scooby_state_4049e5|6|0 5548,3,119,238,5,6,1,1,1,2,1,1,2,6,659,6593,
scooby_state_4049de|40|0 5652,5,5,4,2,6,2,4,3,2,4,4,8,5,881,6587,
scooby_state_4049de|25|0 5665,4,4,6,3,4,3,6,3,2,2,2,3,4,867,6578,
scooby_state_4049de|50|0 5689,4,5,3,5,6,4,1,3,3,4,6,3,4,838,6578,
scooby_state_4049de|48|0 5573,3,8,4,2,7,8,1,1,4,2,3,6,5,875,6502,
scooby_state_4049e5|33|0 5439,3,76,201,3,4,5,2,0,2,1,2,1,5,752,6496,
scooby_state_4049e5|52|0 5348,8,88,288,5,3,6,2,2,3,2,3,4,4,719,6485,
scooby_state_4049e5|18|0 5479,8,80,112,3,10,3,3,1,3,1,3,3,2,734,6445,
scooby_state_4049de|22|0 5510,2,4,2,2,9,2,4,7,3,4,5,4,9,873,6440,
scooby_state_4049e5|54|0 5425,3,51,149,3,9,1,1,2,2,1,2,3,5,781,6438,
scooby_state_4049de|41|0 5550,4,6,5,2,1,3,4,5,6,3,3,6,3,836,6437,
scooby_state_4049e5|31|0 5207,3,51,435,2,4,5,4,5,2,1,3,2,3,708,6435,
scooby_state_4049de|39|0 5528,5,4,2,3,4,7,6,1,2,3,5,6,4,836,6416,
scooby_state_4049de|13|0 5490,6,1,1,9,3,4,8,4,2,2,6,2,2,859,6399,
scooby_state_4049de|52|0 5456,6,7,2,1,4,2,3,4,4,2,5,3,4,883,6386,
scooby_state_4049de|5|0 5436,6,5,4,4,3,2,2,5,4,1,10,1,4,864,6351,
scooby_state_4049e5|15|0 5296,6,99,199,4,4,5,2,0,1,3,3,0,2,706,6330,
scooby_state_4049de|24|0 5454,4,5,0,2,4,5,5,4,6,3,6,3,2,826,6329,
scooby_state_4049de|63|0 5449,4,4,4,3,4,3,1,4,3,0,6,1,2,824,6312,
scooby_state_4049de|37|0 5470,2,3,6,2,2,8,2,3,2,0,1,5,4,799,6309,
scooby_state_4049de|43|0 5380,3,7,4,5,3,5,2,2,1,4,6,7,5,873,6307,
scooby_state_4049de|11|0 5424,5,6,3,4,2,6,4,2,3,2,5,4,8,828,6306,
scooby_state_4049de|10|0 5398,5,6,2,7,0,1,4,6,2,4,6,5,3,856,6305,
scooby_state_4049de|42|0 5365,5,2,1,4,3,4,4,0,4,3,5,10,4,878,6292,
scooby_state_4049de|58|0 5399,2,1,2,2,2,5,4,5,5,1,5,8,2,814,6257,
scooby_state_4049de|15|0 5289,3,9,3,3,0,3,2,3,2,5,3,3,8,891,6227,
scooby_state_4049de|3|0 5311,4,5,4,3,3,1,4,5,5,3,10,5,5,847,6215,
scooby_state_4049de|45|0 5336,1,2,6,6,2,3,5,5,5,3,11,5,4,816,6210,
scooby_state_4049e5|19|0 5317,4,64,101,4,9,4,1,2,4,1,0,3,4,692,6210,
scooby_state_4049de|0|0 5328,4,2,3,4,6,4,1,2,1,1,9,2,2,836,6205,
scooby_state_4049e5|0|0 5029,3,115,409,3,7,0,3,0,2,3,3,2,2,612,6193,
scooby_state_4049e5|7|0 5231,13,69,135,3,7,2,3,3,1,1,3,1,4,708,6184,
scooby_state_4049de|26|0 5319,4,1,4,9,5,6,2,4,4,2,3,6,2,812,6183,
scooby_state_4049de|55|0 5265,3,9,6,4,4,7,4,3,5,2,10,2,6,837,6167,
scooby_state_4049de|38|0 5296,9,6,3,3,5,4,3,3,6,2,3,3,2,808,6156,
scooby_state_4049de|20|0 5308,4,4,6,3,6,5,5,8,5,1,1,4,0,782,6142,
scooby_state_4049e5|38|0 5147,9,58,186,1,3,3,1,0,2,4,3,3,1,716,6137,
scooby_state_4049de|28|0 5270,3,3,3,7,1,2,2,5,5,2,5,5,3,800,6116,
scooby_state_4049e5|4|0 5176,4,50,133,3,6,3,4,3,3,0,3,1,4,719,6112,
scooby_state_4049e5|17|0 5093,4,39,197,7,3,1,1,3,1,6,1,3,2,747,6108,
scooby_state_4049de|62|0 5216,3,2,7,2,4,2,3,4,3,3,10,4,3,841,6107,
scooby_state_4049de|59|0 5184,4,2,2,2,6,4,1,5,3,6,4,3,3,865,6094,
scooby_state_4049de|60|0 5224,3,3,2,1,4,5,3,8,3,2,5,5,3,814,6085,
scooby_state_4049e5|29|0 4905,10,103,392,4,3,5,3,0,0,2,5,0,0,652,6084,
scooby_state_4049de|33|0 5178,2,3,3,5,1,4,2,6,2,3,5,7,5,854,6080,
scooby_state_4049de|8|0 5211,3,5,4,4,2,4,3,4,1,2,5,5,2,811,6066,
scooby_state_4049e5|30|0 5014,8,90,267,4,3,1,1,2,3,2,3,3,3,652,6056,
scooby_state_4049e5|26|0 5057,3,61,147,2,3,1,1,1,2,4,5,4,3,735,6029,
scooby_state_4049de|12|0 5203,2,1,7,3,1,1,2,1,3,4,1,4,2,787,6022,
scooby_state_4049de|54|0 5147,6,4,4,2,1,1,5,2,2,2,7,1,1,827,6012,
scooby_state_4049de|29|0 5154,2,1,4,2,3,5,2,2,7,5,2,9,5,804,6007,
scooby_state_4049e5|3|0 4913,5,46,340,4,2,5,3,1,2,1,4,1,3,659,5989,
scooby_state_4049de|27|0 5161,5,4,3,3,3,3,2,4,2,2,5,3,3,785,5988,
scooby_state_4049de|47|0 5141,2,4,3,4,5,2,5,4,2,0,6,0,2,803,5983,
scooby_state_4049de|32|0 5127,4,4,3,8,2,8,1,5,1,7,4,5,2,794,5975,
scooby_state_4049de|34|0 5119,5,4,6,4,2,5,6,5,4,3,3,4,2,803,5975,
scooby_state_4049de|57|0 5142,2,3,4,1,5,4,4,4,4,5,4,3,3,786,5974,
scooby_state_4049de|35|0 5102,3,2,1,5,3,5,4,1,0,3,4,4,3,834,5974,
scooby_state_4049de|53|0 5113,2,6,5,3,3,0,1,4,3,2,4,2,1,816,5965,
scooby_state_4049cc|1|1 0,1,2,2,5921,1,0,2,1,1,25,1,2,3,2,5964,
scooby_state_4049e5|62|0 4930,9,58,224,2,2,1,3,1,3,0,1,1,5,721,5961,
scooby_state_4049de|19|0 5078,7,5,0,2,1,6,3,1,2,2,5,3,5,827,5947,
scooby_state_4049de|30|0 5134,4,2,2,1,1,4,2,5,3,1,4,2,3,760,5928,
scooby_state_4049de|56|0 5060,2,7,2,3,4,4,4,2,3,0,2,4,6,800,5903,
scooby_state_4049de|51|0 5060,2,1,3,4,5,6,1,2,3,3,4,2,3,796,5895,
scooby_state_4049e5|63|0 5008,9,62,117,1,4,3,3,1,1,2,2,4,2,670,5889,
scooby_state_4049de|9|0 5053,6,6,5,3,4,2,1,4,2,4,2,3,1,793,5889,
scooby_state_4049e5|27|0 4855,3,38,286,2,1,6,4,2,1,1,1,3,3,676,5882,
scooby_state_4049e5|1|0 5006,6,48,158,1,7,1,1,1,2,2,4,1,3,640,5881,
scooby_state_4049de|31|0 5049,4,5,5,1,6,0,3,2,0,2,4,4,2,775,5862,
scooby_state_4049de|21|0 5021,6,3,1,4,6,5,1,3,3,1,5,2,5,784,5850,
scooby_state_4049de|1|0 5012,3,6,4,2,6,4,4,2,2,1,7,2,5,789,5849,
scooby_state_4049e5|9|0 4797,7,32,270,5,6,1,0,2,5,3,3,1,4,673,5809,
scooby_state_4049e5|35|0 4800,2,63,275,1,6,2,1,0,2,3,0,2,3,616,5776,
scooby_state_4049e5|47|0 4887,6,71,123,4,2,1,3,1,4,3,1,3,4,648,5761,
scooby_state_4049e5|59|0 4854,4,56,142,1,4,1,1,0,1,1,1,1,2,691,5760,
scooby_state_4049de|18|0 4952,6,5,2,3,6,3,6,3,3,6,0,5,4,754,5758,
scooby_state_4049e5|51|0 4840,9,45,183,2,5,4,2,1,2,4,3,2,5,649,5756,
scooby_state_4049e5|55|0 4831,6,20,164,1,5,0,4,4,0,4,5,2,4,694,5744,
scooby_state_4049e5|60|0 4827,3,61,150,1,5,2,1,3,5,1,1,4,5,675,5744,
scooby_state_4049e5|14|0 4866,7,77,97,3,3,2,3,1,1,2,4,4,4,642,5716,
scooby_state_4049de|46|0 4899,4,2,3,2,3,5,1,3,6,2,4,4,6,758,5702,
scooby_state_4049de|49|0 4894,1,5,4,2,4,2,2,3,4,2,3,4,1,743,5674,
scooby_state_4049e5|32|0 4675,6,35,343,3,2,1,7,1,1,4,3,5,4,573,5663,
scooby_state_4049de|6|0 4905,2,5,2,0,0,1,3,2,7,3,6,4,1,715,5656,
scooby_state_4049e5|37|0 4757,6,49,178,1,11,0,3,1,1,4,3,4,3,631,5652,
scooby_state_4049de|23|0 4841,4,2,1,3,3,2,3,4,2,2,3,4,9,758,5641,
scooby_state_4049de|61|0 4818,2,2,4,5,1,2,4,1,5,3,2,3,2,778,5632,
scooby_state_4049e5|28|0 4629,5,77,278,0,4,2,8,3,1,4,5,4,4,604,5628,
scooby_state_4049e5|2|0 4676,4,58,247,2,6,2,2,3,0,2,6,5,2,603,5618,
scooby_state_4049de|2|0 4750,9,6,2,3,2,6,3,6,2,5,3,2,2,803,5604,
scooby_state_4049e5|8|0 4678,2,62,178,4,4,3,3,0,1,2,0,0,2,620,5559,
scooby_state_4049cc|33|1 0,0,0,1,5509,0,0,0,1,0,18,2,1,2,1,5535,
scooby_state_4049cc|34|1 0,0,0,1,5501,2,0,1,1,2,17,2,4,3,1,5535,
scooby_state_4049cc|25|1 1,1,1,2,5501,0,0,2,0,0,18,3,3,2,1,5535,
scooby_state_4049cc|21|1 1,0,1,0,5503,1,1,0,2,0,21,2,1,0,2,5535,
scooby_state_4049cc|58|1 0,0,0,1,5502,1,0,1,0,1,20,3,1,1,3,5534,
scooby_state_4049cc|9|1 3,0,1,1,5496,0,1,0,0,2,23,0,3,3,1,5534,
scooby_state_4049cc|42|1 1,3,0,0,5499,1,0,0,2,1,18,2,3,2,2,5534,
scooby_state_4049cc|29|1 0,0,0,2,5500,3,1,0,0,0,18,2,4,2,2,5534,
scooby_state_4049cc|14|1 1,1,2,1,5499,0,0,0,1,0,20,2,2,3,2,5534,
scooby_state_4049cc|45|1 0,1,0,2,5497,1,1,0,0,1,21,2,2,4,2,5534,
scooby_state_4049cc|50|1 1,1,0,1,5500,1,0,1,3,1,18,1,0,3,3,5534,
scooby_state_4049cc|53|1 0,1,0,0,5498,0,2,1,2,1,20,2,3,3,1,5534,
scooby_state_4049cc|57|1 1,3,2,0,5494,0,1,1,1,1,24,2,1,0,2,5533,
scooby_state_4049cc|41|1 0,0,1,0,5504,0,1,1,0,0,20,2,0,2,2,5533,
scooby_state_4049cc|63|1 1,1,0,0,5498,1,2,1,0,0,22,2,4,1,0,5533,
scooby_state_4049cc|61|1 0,1,2,0,5496,0,2,1,0,1,21,3,2,2,2,5533,
scooby_state_4049cc|26|1 0,0,4,1,5497,1,1,1,0,1,19,2,4,2,0,5533,
scooby_state_4049cc|43|1 4,2,2,0,5496,0,0,2,0,1,18,2,2,3,1,5533,
scooby_state_4049cc|54|1 0,1,1,2,5500,0,1,0,0,1,22,0,2,3,0,5533,
scooby_state_4049cc|10|1 0,0,0,0,5500,1,0,1,0,1,23,2,1,2,2,5533,
scooby_state_4049cc|23|1 1,0,0,0,5501,0,0,0,1,0,20,3,2,4,1,5533,
scooby_state_4049cc|35|1 0,0,1,0,5499,0,2,0,1,1,19,3,4,3,0,5533,
scooby_state_4049cc|51|1 1,0,1,2,5494,0,2,0,0,0,20,3,1,3,5,5532,
scooby_state_4049cc|38|1 0,1,0,0,5499,0,3,0,1,1,21,1,3,0,2,5532,
scooby_state_4049cc|15|1 0,1,0,1,5497,0,1,3,0,1,19,2,4,2,1,5532,
scooby_state_4049cc|62|1 0,1,0,1,5494,3,1,1,0,0,22,2,3,2,2,5532,
scooby_state_4049cc|27|1 1,0,2,0,5500,0,0,0,1,3,20,0,2,2,1,5532,
scooby_state_4049cc|13|1 1,1,1,1,5496,1,1,1,1,1,19,2,1,1,4,5532,
scooby_state_4049cc|30|1 1,0,1,2,5499,0,0,2,0,2,19,2,2,0,2,5532,
scooby_state_4049cc|19|1 0,0,1,0,5498,0,2,1,0,0,21,0,3,2,3,5531,
scooby_state_4049cc|37|1 1,0,0,2,5498,2,1,1,0,1,20,0,2,1,2,5531,
scooby_state_4049cc|55|1 3,2,0,0,5494,0,2,0,1,1,21,1,2,2,2,5531,
scooby_state_4049cc|31|1 0,3,2,0,5496,0,2,1,1,1,20,2,0,1,2,5531,
scooby_state_4049cc|22|1 3,1,1,1,5496,0,1,1,0,1,21,3,0,1,1,5531,
scooby_state_4049cc|59|1 2,1,0,1,5496,0,0,1,1,0,19,3,2,2,3,5531,
scooby_state_4049cc|7|1 0,0,2,0,5496,1,0,1,1,1,21,4,1,3,0,5531,
scooby_state_4049cc|49|1 0,2,0,0,5499,1,0,2,0,1,21,1,0,1,3,5531,
scooby_state_4049cc|11|1 0,0,0,2,5498,1,0,1,0,1,21,2,2,0,3,5531,
scooby_state_4049cc|46|1 1,0,1,0,5500,1,0,0,0,2,20,0,2,3,1,5531,
scooby_state_4049cc|17|1 0,0,1,0,5500,1,1,0,0,0,19,1,2,2,3,5530,
scooby_state_4049cc|18|1 2,0,1,1,5485,1,3,1,2,3,22,3,1,3,2,5530,
scooby_state_4049cc|47|1 0,0,2,1,5492,3,1,2,1,1,22,0,2,0,2,5529,
scooby_state_4049cc|6|1 0,0,2,1,5494,1,1,0,0,1,20,2,1,4,2,5529,
scooby_state_4049cc|24|1 1,2,1,1,5495,2,0,0,1,0,18,2,1,2,1,5527,
scooby_state_4049cc|39|1 0,0,1,1,5492,1,0,1,3,2,19,2,2,1,2,5527,
scooby_state_4049cc|60|1 1,0,0,2,5491,0,1,0,1,2,19,2,2,2,3,5526,
scooby_state_4049cc|44|1 1,0,0,0,5492,3,1,0,1,2,19,1,2,2,1,5525,
scooby_state_4049cc|52|1 1,2,0,1,5488,0,1,1,2,1,19,2,2,3,2,5525,
scooby_state_4049cc|28|1 0,1,1,2,5492,0,1,0,0,2,19,1,4,1,1,5525,
scooby_state_4049cc|48|1 1,0,1,0,5492,1,0,1,1,1,20,2,2,0,2,5524,
scooby_state_4049cc|32|1 1,1,1,0,5492,1,0,1,1,0,19,3,1,2,1,5524,
scooby_state_4049cc|8|1 0,1,0,0,5489,0,1,0,0,1,22,1,3,4,2,5524,
scooby_state_4049cc|16|1 2,1,0,0,5493,0,0,2,0,0,20,2,1,2,0,5523,
scooby_state_4049cc|40|1 1,1,2,0,5490,0,0,0,0,0,21,4,0,1,2,5522,
scooby_state_4049cc|56|1 1,1,1,0,5488,0,1,0,0,0,23,1,3,0,3,5522,
scooby_state_4049cc|36|1 0,0,0,0,5491,2,0,0,0,1,19,1,3,3,1,5521,
scooby_state_4049cc|20|1 2,3,0,1,5485,0,1,0,0,2,22,1,2,1,1,5521,
scooby_state_4049cc|12|1 1,1,1,0,5485,0,0,1,1,0,20,3,3,3,2,5521,
scooby_state_4049cc|5|1 0,1,0,3,5471,0,1,1,1,1,19,4,1,1,2,5506,
scooby_state_4049e5|58|0 4442,4,41,331,2,5,1,2,4,2,1,2,2,4,643,5486,
scooby_state_4049e5|5|0 4593,2,52,137,2,3,6,5,2,1,2,4,1,0,659,5469,
scooby_state_4049e5|24|0 4583,6,50,151,3,5,1,0,4,1,1,6,1,3,621,5436,
scooby_state_4049e5|43|0 4436,9,62,251,1,5,3,3,7,2,3,3,1,2,582,5370,
scooby_state_4049e5|49|0 4332,8,51,284,3,3,2,2,2,2,2,2,1,2,648,5344,
scooby_state_4049cc|4|1 2,1,1,0,5305,1,0,0,1,1,21,3,0,3,4,5343,
scooby_state_4049cc|2|1 0,1,0,1,5249,1,0,0,0,0,22,2,2,3,3,5284,
scooby_state_4049e5|13|0 4303,1,80,193,2,6,1,1,4,1,3,0,1,1,574,5171,
scooby_state_4049e5|53|0 4287,9,55,165,1,5,1,1,2,0,0,1,1,0,639,5167,
scooby_state_4049e5|45|0 4233,4,59,287,0,6,2,3,2,2,3,2,3,4,498,5108,
scooby_state_4049e5|46|0 4285,4,50,140,5,4,4,4,1,1,0,1,3,2,583,5087,
scooby_state_4049cc|3|1 2,0,0,0,5021,2,0,1,0,1,20,3,3,3,2,5058,
scooby_state_4049e5|48|0 4070,6,42,311,1,4,2,1,4,3,4,1,2,1,602,5054,
scooby_state_4049e5|36|0 4218,5,58,109,3,2,4,0,4,0,0,2,2,0,592,4999,
scooby_state_4049e5|56|0 4169,4,24,199,2,3,1,0,2,4,3,3,2,2,564,4982,
scooby_state_4049e5|57|0 3952,6,44,287,1,5,0,2,2,1,4,3,1,4,516,4828,
scooby_state_4049e5|34|0 3824,5,43,176,4,0,3,0,0,3,2,1,0,3,543,4607,
scooby_state_4049e5|44|0 3449,3,39,188,2,2,2,0,6,1,3,0,5,4,484,4188,
scooby_state_4049e5|61|0 3448,0,29,221,3,5,2,0,2,2,1,1,4,3,441,4162,
scooby_state_4049cc|3|2 0,1,2,0,2039,1,0,0,0,0,8,4,1,0,0,2056,
scooby_state_4049cc|2|2 0,0,2,0,2004,0,0,0,3,0,8,2,0,0,0,2019,
scooby_state_4049cc|4|2 0,0,1,1,1854,0,0,0,1,0,8,2,0,0,0,1867,
scooby_state_4049cc|5|2 0,1,0,1,1836,0,0,0,1,0,7,1,1,1,0,1849,
scooby_state_4049cc|12|2 0,0,1,0,1834,0,0,0,0,0,8,2,0,0,0,1845,
scooby_state_4049cc|40|2 1,0,0,0,1829,0,2,0,1,0,7,4,0,0,1,1845,
scooby_state_4049cc|47|2 0,0,1,0,1833,0,0,1,0,0,8,2,0,0,0,1845,
scooby_state_4049cc|6|2 0,0,0,0,1832,0,0,2,0,0,7,1,1,1,0,1844,
scooby_state_4049cc|20|2 1,0,0,0,1832,1,0,0,0,1,7,2,0,0,0,1844,
scooby_state_4049cc|48|2 0,0,0,0,1833,0,0,0,1,0,8,2,0,0,0,1844,
scooby_state_4049cc|36|2 0,0,0,0,1835,0,0,0,0,0,6,2,1,0,0,1844,
scooby_state_4049cc|17|2 0,0,0,0,1836,0,0,0,0,0,6,2,0,0,0,1844,
scooby_state_4049cc|18|2 1,1,0,0,1833,0,0,0,0,0,6,2,1,0,0,1844,
scooby_state_4049cc|39|2 0,0,0,0,1830,0,0,1,0,0,9,3,0,1,0,1844,
scooby_state_4049cc|32|2 0,1,0,0,1832,0,0,0,1,0,6,4,0,0,0,1844,
scooby_state_4049cc|59|2 0,0,0,0,1834,0,0,0,0,0,7,3,0,0,0,1844,
scooby_state_4049cc|7|2 1,0,0,0,1835,0,0,0,0,0,6,2,0,0,0,1844,
scooby_state_4049cc|56|2 0,0,0,1,1834,0,0,0,0,0,7,2,0,0,0,1844,
scooby_state_4049cc|55|2 0,0,0,0,1834,0,0,0,0,1,6,2,0,1,0,1844,
scooby_state_4049cc|8|2 0,1,0,1,1832,1,0,0,0,0,7,2,0,0,0,1844,
scooby_state_4049cc|46|2 0,0,0,0,1831,0,1,0,0,0,7,2,2,0,0,1843,
scooby_state_4049cc|62|2 2,0,0,0,1830,0,0,1,0,2,6,2,0,0,0,1843,
scooby_state_4049cc|38|2 0,0,0,0,1831,0,0,1,1,0,7,2,1,0,0,1843,
scooby_state_4049cc|28|2 0,0,1,0,1832,0,1,0,0,1,6,2,0,0,0,1843,
scooby_state_4049cc|23|2 0,1,0,1,1827,0,1,0,0,0,7,4,1,1,0,1843,
scooby_state_4049cc|27|2 0,0,0,0,1832,0,0,1,0,1,6,2,1,0,0,1843,
scooby_state_4049cc|19|2 1,0,0,1,1830,1,0,1,0,1,6,2,0,0,0,1843,
scooby_state_4049cc|44|2 2,0,1,0,1831,0,0,0,1,0,6,2,0,0,0,1843,
scooby_state_4049cc|31|2 0,0,0,0,1831,0,0,1,0,1,7,3,0,0,0,1843,
scooby_state_4049cc|52|2 0,0,0,1,1830,0,0,1,0,0,6,3,0,0,2,1843,
scooby_state_4049cc|37|2 0,0,0,0,1829,0,1,0,1,0,7,2,3,0,0,1843,
scooby_state_4049cc|16|2 0,0,0,1,1831,0,0,0,0,1,6,2,1,0,0,1842,
scooby_state_4049cc|11|2 0,0,0,0,1830,0,0,0,0,0,9,2,0,0,1,1842,
scooby_state_4049cc|57|2 0,0,0,0,1831,0,0,0,0,1,8,2,0,0,0,1842,
scooby_state_4049cc|51|2 0,0,0,0,1833,0,0,0,0,0,6,3,0,0,0,1842,
scooby_state_4049cc|49|2 0,0,0,0,1831,0,0,0,0,0,9,2,0,0,0,1842,
scooby_state_4049cc|30|2 1,1,1,0,1829,0,0,0,0,0,8,2,0,0,0,1842,
scooby_state_4049cc|63|2 0,3,0,0,1831,0,0,0,0,0,6,2,0,0,0,1842,
scooby_state_4049cc|43|2 0,1,1,0,1832,0,0,0,0,0,6,2,0,0,0,1842,
scooby_state_4049cc|41|2 0,0,1,0,1827,0,0,1,0,1,6,5,0,1,0,1842,
scooby_state_4049cc|22|2 0,1,0,0,1827,0,0,0,0,0,9,3,1,1,0,1842,
scooby_state_4049cc|15|2 0,0,1,0,1832,0,0,0,0,0,6,2,0,0,1,1842,
scooby_state_4049cc|26|2 0,0,0,0,1831,0,0,1,0,1,6,2,0,0,1,1842,
scooby_state_4049cc|54|2 3,1,0,0,1830,0,0,0,0,0,6,2,0,0,0,1842,
scooby_state_4049cc|13|2 0,0,1,0,1829,0,0,1,0,0,8,3,0,0,0,1842,
scooby_state_4049cc|50|2 0,0,0,0,1831,0,0,0,0,0,7,3,1,0,0,1842,
scooby_state_4049cc|24|2 0,0,0,1,1830,0,0,0,0,0,6,3,0,0,1,1841,
scooby_state_4049cc|10|2 0,2,0,0,1827,0,0,1,0,0,7,3,1,0,0,1841,
scooby_state_4049cc|60|2 0,0,1,0,1829,1,0,0,0,0,6,3,0,0,1,1841,
scooby_state_4049cc|9|2 0,1,0,0,1829,1,1,0,0,0,6,2,0,0,1,1841,
scooby_state_4049cc|45|2 2,0,0,0,1830,0,0,0,1,0,6,2,0,0,0,1841,
scooby_state_4049cc|61|2 0,0,0,2,1831,0,0,0,0,0,6,2,0,0,0,1841,
scooby_state_4049cc|53|2 0,1,0,0,1828,1,0,1,0,0,7,3,0,0,0,1841,
scooby_state_4049cc|14|2 2,0,0,0,1828,0,0,0,0,0,7,2,1,0,1,1841,
scooby_state_4049cc|35|2 0,1,1,0,1829,0,1,0,0,0,7,2,0,0,0,1841,
scooby_state_4049cc|42|2 0,0,0,0,1829,0,0,0,1,1,6,3,0,0,1,1841,
scooby_state_4049cc|58|2 0,0,0,1,1823,1,1,0,1,2,8,3,0,0,0,1840,
scooby_state_4049cc|29|2 0,0,0,0,1831,0,0,0,0,0,7,2,0,0,0,1840,
scooby_state_4049cc|21|2 0,0,0,1,1828,0,0,0,0,0,8,2,0,0,1,1840,
scooby_state_4049cc|34|2 0,0,0,0,1827,0,0,1,0,0,8,3,1,0,0,1840,
scooby_state_4049cc|33|2 0,0,0,0,1829,0,1,0,0,0,6,4,0,0,0,1840,
scooby_state_4049cc|25|2 0,0,0,0,1830,0,0,0,1,0,6,2,0,0,0,1839,
scooby_state_4049d6|1|-1 0,923,0,0,0,0,0,0,0,0,0,0,0,0,0,923,
scooby_state_4049d6|62|-1 0,920,0,0,0,0,0,0,0,1,1,0,0,0,0,922,
scooby_state_4049cc|1|0 0,0,0,0,914,0,0,0,1,0,5,0,1,1,0,922,
scooby_state_4049d6|10|-1 0,921,0,0,0,0,0,0,0,0,0,0,1,0,0,922,
scooby_state_4049d6|45|-1 0,919,0,0,0,0,0,0,0,0,0,0,2,0,1,922,
scooby_state_4049d6|34|-1 0,922,0,0,0,0,0,0,0,0,0,0,0,0,0,922,
scooby_state_4049d6|18|-1 0,919,0,1,0,1,0,0,1,0,0,0,0,0,0,922,
scooby_state_4049d6|57|-1 2,920,0,0,0,0,0,0,0,0,0,0,0,0,0,922,
scooby_state_4049d6|37|-1 0,922,0,0,0,0,0,0,0,0,0,0,0,0,0,922,
scooby_state_4049d6|6|-1 1,920,0,0,0,0,0,0,0,0,0,0,0,0,0,921,
scooby_state_4049d6|5|-1 0,919,0,0,0,0,0,0,0,0,0,2,0,0,0,921,
scooby_state_4049d6|25|-1 0,918,0,0,0,0,1,0,0,1,0,1,0,0,0,921,
scooby_state_4049d6|29|-1 0,921,0,0,0,0,0,0,0,0,0,0,0,0,0,921,
scooby_state_4049d6|54|-1 0,917,0,0,1,0,0,0,0,2,0,0,0,1,0,921,
scooby_state_4049d6|15|-1 0,920,1,0,0,0,0,0,0,0,0,0,0,0,0,921,
scooby_state_4049d6|46|-1 0,920,0,1,0,0,0,0,0,0,0,0,0,0,0,921,
scooby_state_4049d6|17|-1 1,920,0,0,0,0,0,0,0,0,0,0,0,0,0,921,
scooby_state_4049d6|38|-1 0,918,0,0,0,1,0,0,0,2,0,0,0,0,0,921,
scooby_state_4049d6|26|-1 0,921,0,0,0,0,0,0,0,0,0,0,0,0,0,921,
scooby_state_4049d6|53|-1 0,920,0,0,0,0,0,0,0,0,0,1,0,0,0,921,
scooby_state_4049d6|42|-1 1,919,0,0,0,0,1,0,0,0,0,0,0,0,0,921,
scooby_state_4049d6|60|-1 0,918,0,0,0,0,0,0,0,1,1,0,0,0,1,921,
scooby_state_4049d6|44|-1 0,920,0,0,0,0,0,0,0,1,0,0,0,0,0,921,
scooby_state_4049d6|16|-1 0,921,0,0,0,0,0,0,0,0,0,0,0,0,0,921,
scooby_state_4049d6|13|-1 0,920,0,0,0,0,0,0,0,0,0,0,0,0,1,921,
scooby_state_4049d6|33|-1 0,920,0,0,0,0,0,0,0,0,0,0,0,0,0,920,
scooby_state_4049d6|28|-1 0,918,0,0,0,1,0,0,0,0,0,0,1,0,0,920,
scooby_state_4049d6|20|-1 0,918,0,1,1,0,0,0,0,0,0,0,0,0,0,920,
scooby_state_4049d6|12|-1 1,918,1,0,0,0,0,0,0,0,0,0,0,0,0,920,
scooby_state_4049d6|50|-1 0,920,0,0,0,0,0,0,0,0,0,0,0,0,0,920,
scooby_state_4049d6|35|-1 0,918,0,0,0,0,0,0,0,0,1,0,0,0,1,920,
scooby_state_4049d6|14|-1 1,919,0,0,0,0,0,0,0,0,0,0,0,0,0,920,
scooby_state_4049d6|47|-1 0,920,0,0,0,0,0,0,0,0,0,0,0,0,0,920,
scooby_state_4049d6|59|-1 0,918,0,0,1,0,0,0,0,0,0,0,1,0,0,920,
scooby_state_4049d6|22|-1 1,917,1,0,0,0,1,0,0,0,0,0,0,0,0,920,
scooby_state_4049d6|58|-1 1,919,0,0,0,0,0,0,0,0,0,0,0,0,0,920,
scooby_state_4049d6|21|-1 1,915,0,0,0,0,1,0,2,0,0,1,0,0,0,920,
scooby_state_4049d6|61|-1 0,917,0,0,2,0,0,0,1,0,0,0,0,0,0,920,
scooby_state_4049d6|36|-1 0,917,0,0,0,0,0,0,1,0,1,0,0,0,1,920,
scooby_state_4049d6|30|-1 1,917,0,0,0,1,0,0,1,0,0,0,0,0,0,920,
scooby_state_4049d6|41|-1 0,920,0,0,0,0,0,0,0,0,0,0,0,0,0,920,
scooby_state_4049d6|9|-1 0,918,0,1,0,1,0,0,0,0,0,0,0,0,0,920,
scooby_state_4049d6|49|-1 1,919,0,0,0,0,0,0,0,0,0,0,0,0,0,920,
scooby_state_4049d6|3|-1 1,918,0,0,0,0,0,0,0,0,0,0,0,0,0,919,
scooby_state_4049d6|24|-1 0,916,0,0,0,1,0,1,0,1,0,0,0,0,0,919,
scooby_state_4049d6|8|-1 0,918,0,0,0,1,0,0,0,0,0,0,0,0,0,919,
scooby_state_4049d6|52|-1 0,918,0,0,0,0,0,0,0,1,0,0,0,0,0,919,
scooby_state_4049d6|11|-1 0,917,0,0,0,1,0,1,0,0,0,0,0,0,0,919,
scooby_state_4049d6|55|-1 0,915,0,0,0,1,1,0,0,0,0,0,1,1,0,919,
scooby_state_4049d6|31|-1 1,916,0,0,0,0,0,0,0,2,0,0,0,0,0,919,
scooby_state_4049d6|7|-1 1,917,0,0,0,0,0,1,0,0,0,0,0,0,0,919,
scooby_state_4049d6|48|-1 1,916,0,0,0,1,0,0,0,0,1,0,0,0,0,919,
scooby_state_4049d6|4|-1 1,916,0,1,0,0,0,0,1,0,0,0,0,0,0,919,
scooby_state_4049d6|40|-1 1,914,1,1,0,0,0,0,0,0,0,0,1,1,0,919,
scooby_state_4049d6|43|-1 0,918,0,0,0,0,0,0,0,0,0,0,0,0,1,919,
scooby_state_4049d6|32|-1 1,917,0,0,0,0,0,0,0,0,0,0,0,0,0,918,
scooby_state_4049d6|39|-1 1,917,0,0,0,0,0,0,0,0,0,0,0,0,0,918,
scooby_state_4049d6|23|-1 0,915,1,1,0,0,0,0,1,0,0,0,0,0,0,918,
scooby_state_4049d6|51|-1 0,918,0,0,0,0,0,0,0,0,0,0,0,0,0,918,
scooby_state_4049d6|27|-1 0,917,0,0,0,0,0,0,0,0,1,0,0,0,0,918,
scooby_state_4049d6|56|-1 0,918,0,0,0,0,0,0,0,0,0,0,0,0,0,918,
scooby_state_4049d6|19|-1 0,917,0,0,0,0,0,0,0,0,0,0,0,0,0,917,
scooby_state_4049d6|63|1 0,917,0,0,0,0,0,0,0,0,0,0,0,0,0,917,
scooby_state_40483f|4|0 861,2,1,0,1,2,2,1,3,0,0,1,0,1,2,877,
scooby_state_4049d6|2|-1 1,860,0,0,0,0,0,0,0,0,0,0,0,0,0,861,
scooby_state_40483f|41|0 816,3,3,1,2,1,1,0,2,1,0,0,0,1,3,834,
scooby_state_40483f|53|0 813,0,1,0,3,1,3,1,3,1,0,0,0,2,2,830,
scooby_state_40483f|13|0 796,1,1,1,1,0,2,1,2,1,0,1,1,1,1,810,
scooby_state_40483f|32|0 774,1,2,1,5,2,3,3,5,0,0,2,2,1,2,803,
scooby_state_40483f|5|0 782,0,0,2,3,0,1,0,2,0,1,2,3,0,2,798,
scooby_state_40483f|56|0 755,0,3,1,5,2,1,2,4,3,0,0,0,0,0,776,
scooby_state_40483f|49|0 764,1,1,2,1,0,1,0,2,1,0,1,0,0,0,774,
scooby_state_40483f|60|0 739,1,0,2,1,0,2,1,0,2,0,1,0,1,3,753,
scooby_state_4049d6|0|-1 0,751,1,0,0,0,0,0,0,0,0,0,0,0,0,752,
scooby_state_40483f|45|0 730,0,1,0,2,2,3,0,2,1,0,4,1,0,4,750,
scooby_state_40483f|48|0 721,0,1,2,1,0,0,0,3,1,0,0,2,1,0,732,
scooby_state_40483f|24|0 717,0,0,1,5,0,1,2,2,0,2,0,0,0,1,731,
scooby_state_40483f|57|0 714,1,0,1,5,0,0,1,1,0,1,2,2,1,2,731,
scooby_state_40483f|16|0 716,0,0,0,4,1,1,1,2,0,0,0,1,2,2,730,
scooby_state_40483f|36|0 713,0,0,1,2,0,1,3,5,3,1,1,0,0,0,730,
scooby_state_40483f|20|0 704,0,1,0,3,0,0,1,2,1,0,1,1,1,2,717,
scooby_state_40483f|33|0 702,0,1,0,1,0,2,0,3,2,1,3,0,0,0,715,
scooby_state_40483f|29|0 707,1,1,1,1,0,0,0,1,1,0,0,0,0,1,714,
scooby_state_40483f|0|0 696,0,1,0,1,0,1,1,3,1,2,2,0,1,0,709,
scooby_state_40483f|28|0 688,0,0,0,2,1,1,1,3,0,1,0,3,2,1,703,
scooby_state_40483f|52|0 678,0,2,2,2,3,0,0,3,2,2,1,1,0,1,697,
scooby_state_40483f|62|0 671,2,0,1,0,1,2,1,2,1,0,2,1,2,1,687,
scooby_state_40483f|12|0 666,0,0,0,3,2,1,0,6,2,0,0,1,1,1,683,
scooby_state_40483f|63|0 662,1,0,1,0,2,1,2,5,0,0,0,4,0,3,681,
scooby_state_40483f|1|0 668,0,2,1,0,1,1,1,0,2,1,0,1,2,0,680,
scooby_state_40483f|8|0 661,1,0,0,2,1,1,1,3,0,0,0,2,1,1,674,
scooby_state_40483f|15|0 655,0,0,0,0,1,0,1,5,0,0,2,3,0,6,673,
scooby_state_40483f|55|0 654,1,3,2,0,0,2,0,0,0,1,2,1,0,4,670,
scooby_state_40483f|44|0 636,2,0,0,5,0,2,0,3,1,3,1,1,1,3,658,
scooby_state_40483f|3|0 642,1,0,0,2,2,0,2,1,1,1,1,3,0,1,657,
scooby_state_40483f|58|0 645,1,0,0,0,1,0,0,1,1,1,3,1,0,2,656,
scooby_state_40483f|59|0 641,0,0,0,2,0,1,1,0,1,1,1,1,0,4,653,
scooby_state_40483f|50|0 637,1,0,1,1,3,2,0,1,1,1,1,0,1,1,651,
scooby_state_40483f|38|0 630,1,2,2,1,0,1,4,2,1,1,0,1,2,2,650,
scooby_state_40483f|46|0 636,2,0,0,1,0,4,0,0,0,1,2,2,0,0,648,
scooby_state_40483f|43|0 628,1,0,2,2,0,1,0,2,0,0,2,1,1,4,644,
scooby_state_40483f|23|0 635,0,1,0,0,0,2,1,0,0,3,0,2,0,0,644,
scooby_state_40483f|40|0 615,1,2,2,2,1,0,3,1,1,1,2,2,0,1,634,
scooby_state_40483f|51|0 624,2,0,0,0,1,1,1,0,1,0,1,0,1,2,634,
scooby_state_40483f|42|0 625,0,1,0,0,0,1,3,0,0,0,0,1,0,2,633,
scooby_state_40483f|35|0 621,1,1,0,0,0,1,3,1,0,0,1,1,0,0,630,
scooby_state_40483f|54|0 607,0,2,0,2,0,1,1,1,1,3,2,2,0,2,624,
scooby_state_40483f|19|0 610,0,1,1,1,0,1,2,0,3,0,0,1,1,1,622,
scooby_state_40483f|61|0 609,0,1,0,0,0,2,2,1,0,1,1,1,2,2,622,
scooby_state_40483f|47|0 608,2,1,1,0,2,1,0,1,0,0,0,2,1,0,619,
scooby_state_40483f|21|0 599,0,1,1,2,4,1,1,1,0,1,3,1,0,2,617,
scooby_state_40483f|7|0 605,2,0,1,1,2,0,0,2,0,1,1,0,0,1,616,
scooby_state_40483f|2|0 596,1,2,1,0,2,3,0,1,1,1,1,2,0,4,615,
scooby_state_40483f|9|0 606,1,1,0,0,0,1,1,0,0,0,0,0,0,3,613,
scooby_state_40483f|10|0 594,1,1,1,0,0,0,1,3,3,2,1,3,0,3,613,
scooby_state_403e64|59|-1 429,11,12,12,2,9,11,6,8,3,9,47,12,12,29,612,
scooby_state_40483f|26|0 597,1,1,2,1,0,0,1,1,0,0,1,2,1,3,611,
scooby_state_40483f|27|0 589,1,1,0,1,3,3,2,0,0,2,0,0,2,4,608,
scooby_state_40483f|11|0 590,1,0,0,2,1,0,0,0,0,0,0,1,0,2,597,
scooby_state_40483f|22|0 579,1,0,1,2,0,4,3,1,0,1,0,0,1,2,595,
scooby_state_40483f|31|0 582,0,3,0,0,0,2,1,0,0,1,3,1,1,0,594,
scooby_state_40483f|37|0 582,0,0,0,0,0,0,0,0,2,2,2,2,3,1,594,
scooby_state_40483f|14|0 584,1,0,0,1,1,0,0,0,1,1,2,0,0,2,593,
scooby_state_40483f|39|0 562,0,0,1,0,2,2,2,0,2,2,3,2,0,5,583,
scooby_state_40483f|18|0 563,0,0,0,0,0,0,1,2,1,0,3,1,2,3,576,
scooby_state_40483f|6|0 555,1,1,1,1,2,0,2,2,0,0,3,4,0,3,575,
scooby_state_40483f|34|0 559,1,1,2,0,1,0,0,0,0,0,1,1,0,6,572,
scooby_state_40483f|30|0 562,0,1,0,1,1,1,1,0,0,0,1,0,0,2,570,
scooby_state_40483f|17|0 554,1,1,0,4,0,1,1,1,1,0,2,2,0,1,569,
scooby_state_40483f|25|0 512,0,0,0,1,0,2,1,1,1,0,1,1,0,1,521,
scooby_state_403e60|60|0 0,0,0,0,0,0,1,1,0,0,0,514,0,0,0,516,
scooby_state_404820|8|1 0,463,0,0,0,0,0,0,0,0,0,0,0,0,0,463,
scooby_state_40482f|62|0 420,0,2,2,0,0,1,3,1,5,3,7,2,1,5,452,
scooby_state_40482f|57|0 420,2,1,3,0,0,0,0,1,0,2,5,2,2,5,443,
scooby_state_4049e5|62|2 9,1,2,414,0,1,1,2,0,0,1,5,1,1,1,439,
scooby_state_404820|9|1 0,438,0,0,0,0,0,0,0,0,0,0,0,0,0,438,
scooby_state_404820|10|1 0,424,0,0,0,0,0,0,1,0,0,0,0,0,0,425,
scooby_state_404820|11|1 0,422,0,0,0,0,0,0,0,0,0,0,0,0,0,422,
scooby_state_4048b4|4|0 367,1,2,3,3,3,3,3,3,6,4,7,3,6,6,420,
scooby_state_404820|16|1 1,405,0,0,0,0,0,0,0,0,0,0,0,0,0,406,
scooby_state_40482f|23|0 378,0,3,4,0,1,2,1,1,2,0,1,1,2,3,399,
scooby_state_404820|15|1 2,397,0,0,0,0,0,0,0,0,0,0,0,0,0,399,
scooby_state_4049e5|8|2 6,1,0,377,1,1,1,3,0,0,0,4,1,1,2,398,
scooby_state_4048b4|42|0 357,1,3,3,2,1,2,1,3,4,2,5,2,5,6,397,
scooby_state_40482f|60|0 370,3,1,0,0,0,2,2,1,1,1,3,5,3,3,395,
scooby_state_404820|12|1 0,392,0,0,1,0,0,0,0,0,0,0,0,0,0,393,
scooby_state_4049e5|54|5 308,0,2,13,0,5,0,1,0,1,0,1,2,3,50,386,
scooby_state_404820|14|1 0,385,0,0,0,0,0,0,0,0,0,0,0,0,0,385,
scooby_state_404820|13|1 0,382,0,0,1,1,0,0,0,0,0,0,0,0,0,384,
scooby_state_403e94|61|1 1,0,2,2,3,0,0,0,0,0,0,373,1,1,0,383,
scooby_state_4049e5|60|2 5,1,0,359,0,2,1,1,0,1,0,4,0,1,2,377,
scooby_state_404820|17|1 1,360,0,1,0,0,0,0,0,0,0,0,0,0,0,362,
scooby_state_403e90|26|1 1,3,2,1,5,1,0,2,1,3,2,335,2,3,1,362,
scooby_state_403e94|51|1 1,1,2,2,2,1,0,0,1,0,0,348,1,1,1,361,
scooby_state_404820|18|1 1,357,0,0,0,0,0,0,0,0,0,0,0,0,0,358,
scooby_state_4049e5|6|2 6,0,2,333,1,1,1,2,0,2,1,3,1,1,2,356,
scooby_state_404820|19|1 1,354,0,0,0,0,0,0,0,0,0,0,0,0,0,355,
scooby_state_40482f|24|0 332,2,3,1,0,0,3,0,1,2,1,1,0,5,1,352,
scooby_state_403e64|28|-1 246,6,10,7,3,4,4,2,6,0,6,26,6,10,16,352,
scooby_state_403ee2|63|0 337,2,1,1,1,2,2,1,0,0,0,0,2,1,2,352,
scooby_state_404820|24|1 1,349,0,0,0,0,0,0,0,0,0,0,0,0,0,350,
scooby_state_403e60|59|0 0,1,0,0,0,0,0,0,1,0,1,346,0,0,0,349,
scooby_state_40482f|8|-38 284,1,0,0,61,0,0,0,0,1,1,0,0,0,0,348,
scooby_state_404844|4|0 326,1,1,2,8,0,1,0,0,1,2,1,0,0,2,345,
scooby_state_404844|56|0 319,1,1,0,12,1,1,1,1,1,1,2,0,1,2,344,
scooby_state_403e60|63|0 0,0,0,0,0,0,0,0,0,0,1,342,0,0,0,343,
scooby_state_404820|23|1 0,341,0,0,0,0,0,0,0,0,0,0,0,0,1,342,
scooby_state_404820|20|1 1,336,0,0,0,0,0,0,0,0,0,0,0,0,0,337,
scooby_state_40482f|46|0 322,3,1,0,0,0,3,1,0,0,3,1,1,1,1,337,
scooby_state_4049cc|1|-1 0,0,0,0,334,0,0,0,0,0,1,0,0,0,0,335,
scooby_state_403e64|3|-1 234,4,2,7,2,3,5,2,2,3,2,42,3,4,18,333,
scooby_state_403e9a|60|-1 4,2,3,1,1,3,1,1,2,3,4,10,1,3,293,332,
scooby_state_404820|23|-1 1,1,1,1,0,0,0,0,1,0,1,325,0,0,0,331,
scooby_state_4049e5|32|21 146,6,18,14,59,10,15,11,7,9,4,0,7,0,23,329,
scooby_state_40482f|61|8 315,0,2,1,0,1,1,0,2,0,1,3,0,0,1,327,
scooby_state_404820|29|-1 0,0,0,0,0,0,0,0,0,0,0,324,0,0,0,324,
scooby_state_40483c|36|-1 297,3,2,3,0,1,1,5,2,0,1,2,1,5,0,323,
scooby_state_403e94|60|1 1,0,2,2,1,1,0,0,1,0,0,311,1,1,1,322,
scooby_state_404820|32|1 0,319,0,0,1,0,1,0,0,0,0,0,0,0,0,321,
scooby_state_40482f|32|0 303,5,2,0,0,0,0,1,0,1,0,4,1,2,0,319,
scooby_state_404820|31|-1 0,0,0,0,0,0,0,0,1,0,0,316,0,0,0,317,
scooby_state_404820|22|1 3,312,0,0,0,0,0,0,0,1,0,0,0,0,0,316,
scooby_state_40482f|5|0 298,1,0,0,1,1,1,0,2,0,2,2,0,3,5,316,
scooby_state_404820|26|-1 1,0,1,1,0,1,0,0,0,0,0,311,0,0,0,315,
scooby_state_404820|38|1 0,312,0,0,0,0,0,0,0,0,0,0,0,0,1,313,
scooby_state_404820|28|-1 0,0,0,0,0,0,0,0,0,0,0,312,0,0,0,312,
scooby_state_404820|33|1 0,312,0,0,0,0,0,0,0,0,0,0,0,0,0,312,
scooby_state_404820|21|1 1,311,0,0,0,0,0,0,0,0,0,0,0,0,0,312,
scooby_state_40483c|61|-1 291,0,2,2,1,0,1,1,3,2,2,3,2,0,2,312,
scooby_state_404820|22|-1 1,0,1,1,0,0,0,0,0,1,1,307,0,0,0,312,
scooby_state_40482f|15|0 296,4,0,0,0,0,0,0,0,1,0,7,1,1,1,311,
scooby_state_405d23|0|0 112,16,13,27,17,20,9,10,11,10,15,10,12,13,15,310,
scooby_state_404820|30|1 0,309,0,0,0,0,0,0,0,0,0,0,0,0,0,309,
scooby_state_404820|32|-1 0,0,0,0,0,1,0,0,0,0,0,308,0,0,0,309,
scooby_state_404820|25|-1 1,1,0,1,0,0,0,0,0,0,0,306,0,0,0,309,
scooby_state_40482f|33|0 296,0,2,1,0,2,0,3,1,0,0,2,0,1,0,308,
scooby_state_404820|15|-1 1,0,1,1,0,1,0,0,0,0,0,304,0,0,0,308,
scooby_state_404820|11|-1 2,0,0,1,1,0,0,0,0,0,0,302,0,0,0,306,
scooby_state_404820|62|1 0,305,0,0,0,0,0,0,0,0,0,0,0,0,0,305,
scooby_state_404820|24|-1 1,0,0,1,0,0,0,0,0,0,1,302,0,0,0,305,
scooby_state_404820|31|1 0,303,0,0,1,1,0,0,0,0,0,0,0,0,0,305,
scooby_state_404820|12|-1 2,1,1,1,0,0,0,1,0,0,0,297,0,0,0,303,
scooby_state_404820|14|-1 1,1,1,0,0,0,0,0,0,0,0,300,0,0,0,303,
scooby_state_404820|61|1 1,300,0,0,0,0,0,0,0,0,1,0,0,0,0,302,
scooby_state_404820|30|-1 0,1,0,0,0,0,0,0,0,0,0,301,0,0,0,302,
scooby_state_403e94|52|1 1,0,2,1,2,0,0,0,0,0,0,292,1,3,0,302,
scooby_state_40482f|29|6 296,0,0,0,0,0,1,0,1,0,1,1,1,0,0,301,
scooby_state_404820|27|-1 0,0,0,0,0,0,0,0,0,0,0,301,0,0,0,301,
scooby_state_40482f|18|0 294,0,2,0,0,0,0,0,0,0,1,0,0,3,1,301,
scooby_state_404820|46|1 0,300,0,0,0,0,0,0,0,0,0,0,0,0,0,300,
scooby_state_404820|63|1 1,297,0,0,0,0,0,0,0,0,0,0,0,0,1,299,
scooby_state_404820|5|-1 1,1,0,0,1,0,0,0,0,0,0,294,0,0,0,297,
scooby_state_40482f|37|0 278,2,1,4,0,1,3,1,1,0,0,2,0,0,3,296,
scooby_state_403eec|50|0 293,0,0,0,0,0,1,0,1,0,0,0,0,1,0,296,
scooby_state_404820|37|1 0,296,0,0,0,0,0,0,0,0,0,0,0,0,0,296,
scooby_state_404820|18|-1 1,0,1,1,0,0,0,0,0,0,1,291,0,0,0,295,
scooby_state_404820|10|-1 2,0,0,1,0,0,0,0,0,0,1,291,0,0,0,295,
scooby_state_404820|34|1 0,293,0,0,0,0,0,0,0,1,0,0,0,0,0,294,
scooby_state_4049e5|38|18 205,1,4,6,0,3,6,3,3,2,4,34,8,5,10,294,
scooby_state_404820|25|1 0,293,0,0,0,0,0,0,0,0,0,0,0,0,0,293,
scooby_state_40482f|16|0 272,1,1,1,0,0,1,2,2,3,1,4,0,3,2,293,
scooby_state_404844|16|0 277,0,0,0,9,2,0,0,0,0,1,0,1,0,2,292,
scooby_state_404820|35|1 1,290,0,0,0,0,0,0,0,0,0,0,0,0,0,291,
scooby_state_404820|13|-1 1,1,1,0,0,0,0,0,0,0,0,287,0,0,0,290,
scooby_state_403eec|51|0 287,0,0,0,0,0,1,1,1,0,0,0,0,0,0,290,
scooby_state_404a14|28|1 289,1,0,0,0,0,0,0,0,0,0,0,0,0,0,290,
scooby_state_404820|29|1 0,289,0,0,0,0,0,0,0,0,0,1,0,0,0,290,
scooby_state_404820|55|1 1,288,0,0,0,0,0,0,0,0,0,0,0,0,0,289,
scooby_state_404820|21|-1 1,0,1,1,0,1,0,0,1,0,1,283,0,0,0,289,
scooby_state_404820|56|1 0,288,0,0,0,0,0,0,0,0,0,0,0,0,0,288,
scooby_state_404820|60|1 0,288,0,0,0,0,0,0,0,0,0,0,0,0,0,288,
scooby_state_404820|2|-1 0,2,0,0,1,0,0,0,0,0,0,284,0,0,0,287,
scooby_state_404820|7|-1 1,0,0,0,0,0,0,0,0,0,0,285,0,0,0,286,
scooby_state_403eec|60|0 283,1,0,0,0,0,1,0,1,0,0,0,0,0,0,286,
scooby_state_404820|17|-1 0,0,1,1,0,0,0,1,0,0,0,283,0,0,0,286,
scooby_state_404844|29|0 266,0,2,2,7,2,0,0,1,1,0,1,0,0,3,285,
scooby_state_40482f|30|0 275,0,1,0,0,1,0,1,0,0,0,4,1,0,2,285,
scooby_state_403e94|45|1 1,1,1,0,1,1,0,0,0,0,0,277,1,1,0,284,
scooby_state_404820|16|-1 0,0,1,1,0,0,0,0,0,0,0,282,0,0,0,284,
scooby_state_40483c|37|-1 264,1,2,6,0,0,0,2,4,0,0,1,1,1,2,284,
scooby_state_404820|6|-1 0,1,0,0,1,0,0,0,0,0,1,280,0,0,0,283,
scooby_state_404a14|27|1 281,1,0,0,0,0,0,0,0,0,1,0,0,0,0,283,
scooby_state_404820|54|1 2,280,0,0,0,0,0,0,0,0,0,0,0,0,0,282,
scooby_state_404820|9|-1 1,1,1,1,0,1,0,0,0,0,0,277,0,0,0,282,
scooby_state_404820|57|1 1,280,0,0,0,0,1,0,0,0,0,0,0,0,0,282,
scooby_state_40482f|38|0 256,3,3,0,0,2,2,2,2,1,0,4,1,3,2,281,
scooby_state_403e9a|62|-1 2,2,2,0,0,2,0,2,2,2,2,8,3,2,251,280,
scooby_state_404820|39|1 2,278,0,0,0,0,0,0,0,0,0,0,0,0,0,280,
scooby_state_403ee2|49|-2 264,1,1,0,0,1,1,0,2,3,2,1,1,0,2,279,
scooby_state_404820|0|-1 0,3,0,0,0,0,0,0,0,0,0,276,0,0,0,279,
scooby_state_4048b4|56|0 200,3,6,3,3,4,4,5,3,7,4,9,7,7,14,279,
scooby_state_404820|36|1 0,278,0,0,0,0,0,0,0,0,0,0,0,0,0,278,
scooby_state_4049e5|33|3 0,0,0,274,0,0,1,0,0,2,0,0,0,1,0,278,
scooby_state_404820|8|-1 1,1,1,0,0,0,0,1,0,0,0,274,0,0,0,278,
scooby_state_404a14|29|1 278,0,0,0,0,0,0,0,0,0,0,0,0,0,0,278,
scooby_state_404820|45|1 1,277,0,0,0,0,0,0,0,0,0,0,0,0,0,278,
scooby_state_4049e5|24|3 0,0,0,273,1,0,1,0,2,0,0,0,0,1,0,278,
scooby_state_404820|19|-1 1,0,1,0,0,0,0,0,0,0,1,274,0,0,0,277,
scooby_state_404820|41|1 1,276,0,0,0,0,0,0,0,0,0,0,0,0,0,277,
scooby_state_404820|40|1 1,276,0,0,0,0,0,0,0,0,0,0,0,0,0,277,
scooby_state_404820|4|-1 1,1,0,0,1,0,0,0,0,0,0,273,0,0,0,276,
scooby_state_40482f|24|5 262,1,2,0,7,0,0,1,0,1,0,0,0,0,1,275,
scooby_state_4049e5|3|2 1,0,1,265,0,2,1,0,0,1,1,1,0,1,0,274,
scooby_state_404844|32|0 256,0,0,0,8,0,1,1,2,0,0,1,1,1,2,273,
scooby_state_404820|3|-1 0,2,0,0,1,0,0,0,1,0,0,269,0,0,0,273,
scooby_state_404820|28|1 0,273,0,0,0,0,0,0,0,0,0,0,0,0,0,273,
scooby_state_404820|48|1 0,272,0,0,0,0,0,0,0,0,0,0,0,0,0,272,
scooby_state_403e60|29|0 0,0,0,0,0,0,0,0,0,1,0,271,0,0,0,272,
scooby_state_404820|58|1 1,271,0,0,0,0,0,0,0,0,0,0,0,0,0,272,
scooby_state_40482f|62|2 264,0,2,0,1,1,0,0,0,1,0,0,0,2,0,271,
scooby_state_404844|41|0 256,0,2,1,6,0,1,0,0,0,0,1,1,1,2,271,
scooby_state_404820|1|-1 0,2,0,0,0,0,0,0,0,0,0,269,0,0,0,271,
scooby_state_40482f|55|9 262,0,1,2,3,0,0,0,0,0,0,1,0,0,2,271,
scooby_state_4049e5|50|4 0,0,244,0,0,4,4,2,1,0,1,8,2,2,3,271,
scooby_state_404820|49|1 0,271,0,0,0,0,0,0,0,0,0,0,0,0,0,271,
scooby_state_4049e5|47|2 3,1,1,256,0,0,0,1,0,2,2,2,0,0,2,270,
scooby_state_403e90|49|1 0,3,0,3,3,0,1,2,3,2,1,243,3,3,3,270,
scooby_state_404820|53|1 1,269,0,0,0,0,0,0,0,0,0,0,0,0,0,270,
scooby_state_4049e5|9|2 3,1,1,257,0,0,1,2,0,0,0,2,1,1,0,269,
scooby_state_40482f|32|-30 257,1,0,0,0,1,2,3,1,1,0,0,1,1,1,269,
scooby_state_404844|15|0 251,0,4,1,4,1,1,0,0,1,0,2,1,2,1,269,
scooby_state_404820|59|1 0,269,0,0,0,0,0,0,0,0,0,0,0,0,0,269,
scooby_state_40482f|46|45 184,0,10,5,40,5,4,2,5,0,6,0,1,3,3,268,
scooby_state_404844|1|0 257,0,0,1,2,0,1,0,2,0,1,1,0,1,2,268,
scooby_state_404844|12|0 247,0,2,2,11,0,0,0,1,1,2,1,0,1,0,268,
scooby_state_40482f|48|0 260,1,0,2,0,0,0,1,0,2,0,0,1,0,1,268,
scooby_state_403e94|4|1 0,1,2,1,1,1,0,0,2,0,0,258,0,1,1,268,
scooby_state_4048b4|32|0 212,1,4,2,3,3,3,4,3,7,3,7,4,7,4,267,
scooby_state_40482f|11|0 245,0,0,0,1,2,3,2,0,1,1,6,2,1,2,266,
scooby_state_4048b4|14|0 216,2,3,5,1,3,2,3,1,5,3,6,3,5,8,266,
scooby_state_403e54|3|0 63,162,3,3,3,3,3,3,3,3,5,6,3,3,0,266,
scooby_state_404844|36|0 254,0,0,0,6,0,0,0,0,0,2,0,1,1,2,266,
scooby_state_40482f|53|0 252,1,0,1,0,1,0,0,0,1,0,3,2,1,3,265,
scooby_state_404a14|26|1 263,0,0,0,0,0,0,0,0,0,2,0,0,0,0,265,
scooby_state_4049e5|56|2 4,0,0,248,1,2,2,2,0,0,0,3,0,1,1,264,
scooby_state_404820|44|1 1,263,0,0,0,0,0,0,0,0,0,0,0,0,0,264,
scooby_state_40482f|37|-26 251,0,1,2,0,1,0,1,1,1,2,2,0,0,1,263,
scooby_state_40483c|15|-1 251,1,1,0,1,0,0,2,2,1,1,1,1,1,0,263,
scooby_state_403e94|34|1 2,0,0,0,0,0,0,0,0,0,0,259,0,2,0,263,
scooby_state_4049e5|13|2 2,0,2,249,0,1,1,1,0,2,2,1,0,1,0,262,
scooby_state_404844|33|0 248,1,0,1,3,2,0,0,0,2,1,1,2,1,0,262,
scooby_state_404820|52|1 0,262,0,0,0,0,0,0,0,0,0,0,0,0,0,262,
scooby_state_4048b4|46|0 202,3,5,3,2,3,4,2,3,3,3,7,5,5,12,262,
scooby_state_404820|50|1 1,260,0,0,0,0,0,0,0,0,0,0,0,0,0,261,
scooby_state_404a14|30|1 261,0,0,0,0,0,0,0,0,0,0,0,0,0,0,261,
scooby_state_404a14|31|1 260,0,0,0,0,0,0,1,0,0,0,0,0,0,0,261,
scooby_state_404844|5|0 246,1,0,0,5,2,1,0,1,0,1,0,1,0,3,261,
scooby_state_404820|47|1 0,261,0,0,0,0,0,0,0,0,0,0,0,0,0,261,
scooby_state_4049e5|6|3 0,0,0,256,0,0,0,1,1,1,1,0,0,0,0,260,
scooby_state_404844|62|0 251,1,0,1,3,0,0,0,1,0,2,0,0,0,0,259,
scooby_state_4048bc|49|0 228,4,2,4,0,4,4,2,0,2,0,2,2,3,2,259,
scooby_state_4049e5|28|2 5,2,0,246,0,0,0,0,0,1,0,3,0,0,1,258,
scooby_state_40482f|31|0 249,0,0,1,0,0,0,2,0,1,0,1,2,0,2,258,
scooby_state_404820|20|-1 1,0,1,0,0,1,0,0,0,0,1,254,0,0,0,258,
scooby_state_40482f|61|0 241,0,0,0,0,3,1,3,2,0,1,2,1,0,3,257,
scooby_state_404844|63|0 248,0,0,1,4,0,0,3,0,0,0,1,0,0,0,257,
scooby_state_40482f|40|0 243,3,3,0,0,1,0,1,1,2,0,1,0,1,1,257,
scooby_state_404844|22|0 249,0,0,1,3,0,0,1,0,0,1,0,0,1,0,256,
scooby_state_4048b4|54|0 221,0,1,4,2,2,2,2,2,4,3,4,3,4,2,256,
scooby_state_404820|33|-1 0,0,0,0,0,0,0,0,0,0,0,256,0,0,0,256,
scooby_state_404820|51|1 1,254,0,0,0,0,0,0,0,0,0,0,0,0,0,255,
scooby_state_4049e5|11|3 0,0,0,253,0,0,0,0,0,2,0,0,0,0,0,255,
scooby_state_404a14|32|1 254,0,1,0,0,0,0,0,0,0,0,0,0,0,0,255,
scooby_state_404844|20|0 241,0,0,0,5,1,2,1,0,1,0,0,1,0,3,255,
scooby_state_403e64|50|-1 165,0,0,3,3,6,2,1,0,4,2,57,0,3,8,254,
scooby_state_403e64|44|-1 180,6,0,4,2,2,1,1,0,1,4,40,1,2,10,254,
scooby_state_40483c|22|-1 234,1,2,2,1,2,1,0,3,0,1,4,0,1,2,254,
scooby_state_403e94|59|1 0,1,1,2,1,1,0,0,1,0,0,244,1,1,1,254,
scooby_state_404844|28|0 243,0,1,2,4,0,1,0,1,0,0,1,0,0,1,254,
scooby_state_4049cc|3|3 0,0,0,0,253,0,0,0,0,0,0,0,0,0,0,253,
scooby_state_4049e5|4|2 3,0,1,241,0,0,1,1,0,1,1,2,1,1,0,253,
scooby_state_4048b4|36|0 180,3,5,3,2,5,4,5,4,5,5,8,6,6,11,252,
scooby_state_40482f|60|-2 230,1,2,2,1,2,0,2,0,2,2,0,0,5,3,252,
scooby_state_40482f|0|0 235,1,0,6,0,0,0,3,0,1,1,2,0,3,0,252,
scooby_state_40482f|13|0 237,0,0,0,0,3,1,1,1,1,0,4,1,1,1,251,
scooby_state_4048b4|60|0 195,2,5,3,2,2,3,3,3,4,4,6,5,5,9,251,
scooby_state_4048bc|55|0 181,10,5,4,0,4,4,5,4,4,5,4,4,5,11,250,
scooby_state_4049e5|25|2 2,1,2,239,0,1,0,0,0,2,2,1,0,0,0,250,
scooby_state_404a14|34|1 250,0,0,0,0,0,0,0,0,0,0,0,0,0,0,250,
scooby_state_404844|55|0 237,1,1,0,2,0,1,1,0,1,0,0,2,1,3,250,
scooby_state_404a14|25|1 249,0,0,0,0,0,0,0,0,0,0,0,0,0,0,249,
scooby_state_404844|24|0 233,0,0,1,9,0,0,0,1,1,0,1,0,0,3,249,
scooby_state_40482f|28|0 237,1,2,0,0,1,0,1,2,0,2,1,0,1,0,248,
scooby_state_404820|42|1 0,247,0,0,0,0,0,0,1,0,0,0,0,0,0,248,
scooby_state_404844|45|0 232,0,0,0,8,1,0,1,2,0,1,1,0,0,1,247,
scooby_state_4048b4|16|0 188,2,4,5,2,3,2,3,3,5,2,8,5,7,8,247,
scooby_state_404844|13|0 233,0,0,1,4,1,1,0,4,1,1,1,0,0,0,247,
scooby_state_40483c|23|-1 234,1,0,1,0,2,0,0,2,1,2,0,2,0,2,247,
scooby_state_405d41|62|3 159,8,6,3,1,2,2,7,4,5,5,10,13,5,17,247,
scooby_state_404844|49|0 234,0,0,0,4,0,1,0,2,0,0,0,2,2,0,245,
scooby_state_404844|38|0 235,1,0,0,2,0,1,0,0,2,0,2,2,0,0,245,
scooby_state_404844|8|0 233,0,0,0,6,0,0,0,0,1,2,1,1,0,1,245,
scooby_state_403eec|59|0 242,0,0,0,0,0,1,1,1,0,0,0,0,0,0,245,
scooby_state_4049e5|23|2 3,1,1,234,0,1,1,0,0,1,1,1,0,1,0,245,
scooby_state_40482f|57|-5 236,0,1,0,0,1,1,0,0,0,1,1,1,0,2,244,
scooby_state_403eb4|25|0 243,0,0,0,0,0,0,0,0,0,0,1,0,0,0,244,
scooby_state_403e90|18|1 0,2,0,2,2,1,1,2,2,1,0,225,2,2,2,244,
scooby_state_4049e5|26|3 0,0,0,239,0,1,1,0,0,1,0,0,1,1,0,244,
scooby_state_40482f|46|38 223,1,0,1,1,1,2,0,0,0,0,14,1,0,0,244,
scooby_state_404820|37|-1 0,0,0,0,0,0,0,0,0,0,0,244,0,0,0,244,
scooby_state_40482f|3|0 228,1,2,0,0,1,1,2,0,1,3,2,0,2,0,243,
scooby_state_403eb4|17|0 243,0,0,0,0,0,0,0,0,0,0,0,0,0,0,243,
scooby_state_403ee2|28|-1 238,1,0,0,0,1,1,0,0,1,0,0,1,0,0,243,
scooby_state_40482f|56|29 235,1,0,0,0,0,0,1,0,0,0,1,0,3,0,241,
scooby_state_404820|34|-1 0,0,0,0,0,0,0,0,0,0,0,241,0,0,0,241,
scooby_state_40482f|58|0 230,0,0,2,0,0,1,0,0,0,0,3,3,0,2,241,
scooby_state_403e90|0|0 1,1,2,1,9,0,1,1,1,1,1,221,0,1,0,241,
scooby_state_403e90|63|0 0,2,0,2,10,0,2,0,0,0,2,221,2,0,0,241,
scooby_state_40482f|55|0 225,2,0,0,0,2,0,1,0,0,1,4,2,1,2,240,
scooby_state_403e64|60|0 182,3,2,2,19,0,5,2,5,1,0,0,5,5,9,240,
scooby_state_404a14|33|1 238,1,0,0,0,0,0,0,0,0,0,0,0,0,0,239,
scooby_state_4048b4|20|0 191,3,3,2,2,2,2,4,2,5,3,6,5,6,3,239,
scooby_state_4049e5|21|1 177,3,3,2,9,2,5,1,4,2,4,0,1,1,25,239,
scooby_state_404a14|16|1 239,0,0,0,0,0,0,0,0,0,0,0,0,0,0,239,
scooby_state_40482f|29|12 232,1,0,0,0,1,0,0,0,2,0,0,0,1,1,238,
scooby_state_40482f|8|-46 231,0,0,0,0,1,2,0,0,0,2,1,0,1,0,238,
scooby_state_40482f|62|1 232,0,0,0,0,4,0,0,0,0,0,0,0,1,1,238,
scooby_state_403eb4|48|0 236,0,0,0,0,1,1,0,0,0,0,0,0,0,0,238,
scooby_state_4048b4|50|0 204,1,2,4,1,2,1,1,1,4,2,4,2,4,4,237,
scooby_state_404820|43|1 0,237,0,0,0,0,0,0,0,0,0,0,0,0,0,237,
scooby_state_404844|3|0 225,0,0,3,1,3,1,0,0,0,2,0,1,0,1,237,
scooby_state_404844|37|0 217,0,3,1,6,1,1,0,0,0,2,1,1,1,2,236,
scooby_state_403e64|60|-1 150,0,1,3,2,4,2,0,0,3,3,60,0,2,6,236,
scooby_state_404a14|0|0 235,0,0,0,0,0,0,0,1,0,0,0,0,0,0,236,
scooby_state_403eec|58|0 234,0,0,0,0,0,0,0,2,0,0,0,0,0,0,236,
scooby_state_404844|60|0 227,1,0,1,3,1,0,0,0,1,2,0,0,0,0,236,
scooby_state_403eec|53|0 234,0,0,0,0,0,1,0,1,0,0,0,0,0,0,236,
scooby_state_40482f|39|0 213,1,3,0,0,3,2,1,0,0,1,4,3,2,3,236,
scooby_state_404844|39|0 229,1,2,0,2,0,0,0,1,0,0,0,0,1,0,236,
scooby_state_404844|40|0 217,1,1,3,10,0,0,1,0,0,1,1,0,0,0,235,
scooby_state_40482f|29|0 226,0,1,0,1,0,2,0,1,0,1,2,0,1,0,235,
scooby_state_404844|14|0 227,1,2,0,4,0,0,0,0,0,0,0,1,0,0,235,
scooby_state_404844|52|0 221,0,0,0,7,0,0,1,1,1,4,0,0,0,0,235,
scooby_state_4049e5|63|3 0,0,0,231,0,0,0,1,0,2,1,0,0,0,0,235,
scooby_state_403e64|63|0 154,2,3,3,30,0,4,2,5,0,0,15,4,4,9,235,
scooby_state_40482f|24|24 193,1,1,0,26,0,1,3,0,2,1,0,2,3,1,234,
scooby_state_4049e5|44|3 0,0,0,229,0,0,0,1,0,1,2,0,0,0,1,234,
scooby_state_40482f|60|14 219,2,0,2,0,1,1,1,0,3,2,0,0,0,3,234,
scooby_state_404844|35|0 216,1,0,3,5,0,1,1,2,1,0,2,0,0,2,234,
scooby_state_40482f|46|46 203,4,4,0,0,2,2,1,2,2,2,6,0,3,3,234,
scooby_state_4084b8|59|1 2,229,0,0,0,0,0,0,0,0,0,0,0,1,0,232,
scooby_state_40482f|56|0 209,0,0,2,0,1,1,2,4,2,2,3,2,2,2,232,
scooby_state_403ee2|44|-1 220,1,1,0,0,1,2,0,1,3,1,1,0,0,1,232,
scooby_state_404a14|23|1 232,0,0,0,0,0,0,0,0,0,0,0,0,0,0,232,
scooby_state_403eb4|30|0 232,0,0,0,0,0,0,0,0,0,0,0,0,0,0,232,
scooby_state_403e90|31|1 1,1,1,1,3,1,1,1,2,2,2,212,1,2,1,232,
scooby_state_404844|57|0 221,2,1,0,4,0,0,1,1,0,0,0,0,1,1,232,
scooby_state_404a14|35|1 231,0,0,0,1,0,0,0,0,0,0,0,0,0,0,232,
scooby_state_4048bc|25|0 179,7,2,4,0,4,4,5,1,3,3,4,3,5,8,232,
scooby_state_403ee2|59|-1 215,1,0,0,0,1,1,0,3,5,1,1,1,0,3,232,
scooby_state_404820|36|-1 0,1,0,0,0,0,0,0,0,0,0,231,0,0,0,232,
scooby_state_403e64|44|0 159,3,4,4,25,0,8,3,7,0,1,0,6,6,6,232,
scooby_state_403e90|61|0 1,1,1,2,10,0,1,1,1,1,1,209,1,1,0,231,
scooby_state_404844|6|0 221,0,1,0,5,0,0,1,0,1,1,0,0,1,0,231,
scooby_state_40482f|35|0 216,1,0,0,0,1,0,0,1,1,0,3,2,2,4,231,
scooby_state_404844|42|0 220,0,1,1,6,1,0,0,1,0,0,0,1,0,0,231,
scooby_state_403e60|44|0 0,0,0,0,0,0,0,0,0,0,0,230,0,0,0,230,
scooby_state_404a14|24|1 230,0,0,0,0,0,0,0,0,0,0,0,0,0,0,230,
scooby_state_40482f|47|0 226,2,0,0,0,0,0,0,1,0,0,0,0,0,1,230,
scooby_state_403e94|54|1 1,1,2,1,1,1,0,0,1,0,0,218,1,1,1,229,
scooby_state_404a14|18|1 229,0,0,0,0,0,0,0,0,0,0,0,0,0,0,229,
scooby_state_40482f|34|-3 211,4,1,0,1,1,0,1,0,0,0,9,0,0,0,228,
scooby_state_404820|35|-1 0,0,0,0,0,0,0,0,0,0,0,228,0,0,0,228,
scooby_state_404a14|20|1 228,0,0,0,0,0,0,0,0,0,0,0,0,0,0,228,
scooby_state_404844|23|0 207,2,0,1,2,3,1,0,1,2,1,3,2,0,2,227,
scooby_state_40482f|60|12 214,3,0,1,0,1,0,2,2,0,0,1,1,0,2,227,
scooby_state_404a14|7|1 227,0,0,0,0,0,0,0,0,0,0,0,0,0,0,227,
scooby_state_40483c|52|-1 220,0,0,1,0,2,0,1,1,1,0,1,0,0,0,227,
scooby_state_40482f|45|0 220,1,0,0,0,0,0,1,2,0,0,0,1,1,0,226,
scooby_state_404a14|15|1 226,0,0,0,0,0,0,0,0,0,0,0,0,0,0,226,
scooby_state_4049e5|51|4 0,0,210,0,0,3,1,0,0,1,0,6,1,2,2,226,
scooby_state_40482f|19|-10 217,1,2,0,0,0,1,0,0,1,2,0,2,0,0,226,
scooby_state_404844|53|0 211,0,0,0,8,0,0,1,1,0,1,1,1,1,1,226,
scooby_state_40482f|62|47 195,1,1,6,5,1,1,1,1,1,0,10,0,0,3,226,
scooby_state_404844|59|0 217,0,2,0,3,0,0,0,0,1,1,1,0,0,1,226,
scooby_state_404844|46|0 213,0,0,1,3,1,0,1,1,0,1,0,1,2,1,225,
scooby_state_404a14|36|1 225,0,0,0,0,0,0,0,0,0,0,0,0,0,0,225,
scooby_state_403e60|4|0 0,1,0,0,0,0,0,0,0,0,1,223,0,0,0,225,
scooby_state_4049e5|47|24 127,0,13,4,0,8,4,4,12,2,3,10,7,13,18,225,
scooby_state_40483c|56|-1 204,3,2,1,0,2,2,1,2,2,1,1,2,0,1,224,
scooby_state_403eec|18|0 222,0,0,0,0,0,0,0,1,1,0,0,0,0,0,224,
scooby_state_40482f|51|-10 206,0,2,1,1,2,2,0,0,1,2,0,0,1,6,224,
scooby_state_404a14|8|1 223,0,0,0,0,0,0,0,0,0,0,0,0,1,0,224,
scooby_state_40482f|62|5 214,0,0,1,5,2,0,0,0,0,0,0,0,0,2,224,
scooby_state_404a14|6|1 223,0,0,0,1,0,0,0,0,0,0,0,0,0,0,224,
scooby_state_4048b4|6|0 201,0,2,2,1,1,1,1,1,4,1,3,2,3,1,224,
scooby_state_404a14|22|1 224,0,0,0,0,0,0,0,0,0,0,0,0,0,0,224,
scooby_state_404844|9|0 212,0,1,0,8,1,0,2,0,0,0,0,0,0,0,224,
scooby_state_40482f|50|0 210,0,2,1,0,0,0,1,0,1,1,2,2,3,0,223,
scooby_state_404844|44|0 214,1,0,0,3,1,0,0,0,0,1,1,0,1,0,222,
scooby_state_4049e5|41|3 0,0,0,216,1,1,1,0,1,1,0,0,0,1,0,222,
scooby_state_404a14|10|1 222,0,0,0,0,0,0,0,0,0,0,0,0,0,0,222,
scooby_state_4049e5|17|3 0,0,0,219,0,1,0,0,0,1,0,0,1,0,0,222,
scooby_state_40482f|17|0 217,1,1,0,0,0,0,2,0,0,0,0,1,0,0,222,
scooby_state_40482f|1|-55 206,1,4,0,4,0,1,0,0,0,1,1,1,0,2,221,
scooby_state_404a14|17|1 221,0,0,0,0,0,0,0,0,0,0,0,0,0,0,221,
scooby_state_40482f|62|62 214,0,1,0,0,2,0,1,0,2,0,0,0,1,0,221,
scooby_state_404a14|14|1 221,0,0,0,0,0,0,0,0,0,0,0,0,0,0,221,
scooby_state_40482f|60|3 209,0,2,1,0,0,1,0,1,0,2,3,0,0,2,221,
scooby_state_4049e5|49|46 139,3,11,2,2,0,1,6,5,3,3,13,10,8,15,221,
scooby_state_404a14|5|1 220,0,0,0,0,0,0,0,0,0,0,0,0,0,0,220,
scooby_state_40483c|31|-1 200,1,3,2,2,1,0,2,0,2,1,1,1,1,3,220,
scooby_state_404a14|12|1 220,0,0,0,0,0,0,0,0,0,0,0,0,0,0,220,
scooby_state_40483c|54|-1 207,0,2,0,1,0,0,2,3,0,1,1,3,0,0,220,
scooby_state_404a14|9|1 220,0,0,0,0,0,0,0,0,0,0,0,0,0,0,220,
scooby_state_404a14|4|1 219,0,0,1,0,0,0,0,0,0,0,0,0,0,0,220,
scooby_state_404844|34|0 201,2,3,0,2,0,1,2,0,0,2,3,0,0,3,219,
scooby_state_4049e5|18|2 2,0,1,208,0,0,1,2,0,1,0,2,0,1,1,219,
scooby_state_404844|47|0 211,0,0,0,5,0,1,0,0,0,0,1,0,0,1,219,
scooby_state_404a14|21|1 218,0,0,0,0,0,1,0,0,0,0,0,0,0,0,219,
scooby_state_404844|48|0 206,0,1,1,3,1,1,1,2,0,0,1,1,1,0,219,
scooby_state_404a14|2|1 219,0,0,0,0,0,0,0,0,0,0,0,0,0,0,219,
scooby_state_404a14|1|1 219,0,0,0,0,0,0,0,0,0,0,0,0,0,0,219,
scooby_state_40483c|45|-1 204,2,1,0,0,0,0,1,3,0,0,2,1,2,2,218,
scooby_state_404820|26|1 0,217,0,0,0,0,0,0,0,0,0,0,0,0,0,217,
scooby_state_403e64|29|-1 139,1,0,3,3,3,3,1,0,2,2,49,1,3,7,217,
scooby_state_40482f|62|46 184,5,3,1,0,3,0,0,1,1,4,6,5,2,2,217,
scooby_state_40482f|22|0 192,2,3,5,0,2,1,4,1,0,1,3,0,3,0,217,
scooby_state_40482f|15|-29 207,0,1,2,2,0,0,2,0,0,0,0,0,2,0,216,
scooby_state_40482f|53|29 203,0,0,3,2,1,0,0,0,0,0,3,0,2,2,216,
scooby_state_4049e5|46|8 108,3,4,59,0,10,4,3,1,2,2,2,4,3,11,216,
scooby_state_40482f|46|22 209,0,1,0,0,0,1,0,0,1,0,3,0,1,0,216,
scooby_state_404a14|19|1 215,0,0,0,0,0,0,0,0,0,0,0,0,0,0,215,
scooby_state_404844|0|0 205,1,0,1,2,1,1,1,0,1,0,0,0,0,2,215,
scooby_state_403e60|30|0 0,0,0,0,0,0,0,0,0,0,0,215,0,0,0,215,
scooby_state_4048b4|12|0 163,1,5,2,3,3,3,3,3,6,3,5,5,5,5,215,
scooby_state_40482f|2|-53 173,14,1,0,4,3,1,0,2,1,0,6,3,3,4,215,
scooby_state_403e94|19|1 2,1,0,0,0,1,0,0,1,0,1,206,1,1,1,215,
scooby_state_404844|58|0 203,0,0,0,7,0,0,1,2,0,0,0,0,1,0,214,
scooby_state_404a14|62|1 213,0,0,0,0,0,0,0,0,0,1,0,0,0,0,214,
scooby_state_40482f|36|0 208,1,0,0,0,0,0,0,0,1,0,2,0,2,0,214,
scooby_state_40482f|11|-51 178,0,2,3,3,2,9,3,3,2,2,0,1,2,4,214,
scooby_state_40482f|60|45 181,0,3,2,8,2,2,2,0,3,2,0,4,2,3,214,
scooby_state_40482f|12|0 203,1,1,0,0,1,0,0,0,1,0,3,1,0,3,214,
scooby_state_4049e5|18|5 176,0,1,6,0,3,0,0,0,1,0,1,2,1,23,214,
scooby_state_404844|11|0 206,1,0,0,4,0,0,0,2,0,1,0,0,0,0,214,
scooby_state_404a14|37|1 212,0,0,0,0,0,0,0,0,0,1,0,0,0,0,213,
scooby_state_404a14|63|1 212,0,0,0,1,0,0,0,0,0,0,0,0,0,0,213,
scooby_state_4049e5|19|2 0,0,2,205,0,1,1,0,0,1,1,0,1,1,0,213,
scooby_state_40482f|5|-57 165,2,3,1,0,1,8,2,5,4,3,5,4,7,2,212,
scooby_state_403e9a|49|-1 2,2,1,0,2,3,1,2,0,5,2,5,1,2,184,212,
scooby_state_40483c|60|-1 199,0,2,0,0,1,1,0,2,2,1,0,0,2,2,212,
scooby_state_403e90|50|0 1,2,1,2,11,0,0,0,0,2,1,192,0,0,0,212,
scooby_state_40482f|23|23 192,3,3,0,1,1,3,1,1,1,1,0,2,1,2,212,
scooby_state_403e94|53|1 0,0,1,2,1,0,0,0,0,0,0,206,1,1,0,212,
scooby_state_40482f|62|3 204,1,2,0,0,0,1,0,0,1,0,1,1,1,0,212,
scooby_state_404844|10|0 202,0,1,0,3,0,0,0,0,0,0,2,2,1,1,212,
scooby_state_40482f|15|-45 186,3,1,2,0,2,1,4,2,2,0,3,3,2,1,212,
scooby_state_40483c|59|-1 206,1,0,0,0,0,1,0,0,0,1,1,1,0,1,212,
scooby_state_40482f|23|5 198,0,1,0,10,2,0,1,0,0,0,0,0,0,0,212,
scooby_state_40482f|24|-6 196,0,0,5,0,0,1,1,1,1,2,0,1,2,2,212,
scooby_state_404844|54|0 197,0,0,1,7,1,0,2,0,0,2,0,0,1,1,212,
scooby_state_40482f|60|2 202,0,2,0,0,3,1,1,0,0,0,1,1,1,0,212,
scooby_state_404844|21|0 196,0,1,1,4,1,0,0,0,2,1,0,2,0,3,211,
scooby_state_40482f|26|0 193,0,0,0,0,2,3,1,1,0,0,5,2,0,4,211,
scooby_state_404a14|11|1 210,0,0,0,0,0,0,0,1,0,0,0,0,0,0,211,
scooby_state_404844|2|0 197,1,1,1,2,0,0,2,0,2,2,0,1,0,1,210,
scooby_state_40482f|40|-22 173,4,4,1,1,5,1,3,4,3,1,3,1,2,4,210,
scooby_state_40482f|62|7 198,0,1,3,0,2,0,0,0,2,2,1,0,1,0,210,
scooby_state_40482f|57|47 188,1,0,5,6,0,0,0,2,0,0,6,0,0,1,209,
scooby_state_40482f|24|1 197,0,1,2,0,0,1,1,0,1,1,2,1,1,1,209,
scooby_state_40483c|61|0 190,0,1,4,3,0,2,1,3,0,0,2,3,0,0,209,
scooby_state_4049e5|21|3 0,0,0,206,0,0,1,0,1,0,0,0,0,1,0,209,
scooby_state_40482f|52|0 202,0,0,0,0,1,0,0,0,0,1,2,1,0,2,209,
scooby_state_404fc0|62|0 46,8,14,13,0,11,9,10,5,11,9,13,20,19,21,209,
scooby_state_404a14|3|1 209,0,0,0,0,0,0,0,0,0,0,0,0,0,0,209,
scooby_state_40482f|46|-14 195,0,1,2,0,2,1,1,1,0,0,2,2,0,2,209,
scooby_state_404a14|13|1 209,0,0,0,0,0,0,0,0,0,0,0,0,0,0,209,
scooby_state_40482f|8|0 192,2,0,4,0,0,2,0,0,0,1,2,1,3,1,208,
scooby_state_403eb4|29|0 208,0,0,0,0,0,0,0,0,0,0,0,0,0,0,208,
scooby_state_40482f|18|-39 159,0,0,1,0,1,0,2,1,0,0,42,0,0,2,208,
scooby_state_40482f|62|14 197,1,3,1,0,0,0,0,1,0,0,1,0,2,2,208,
scooby_state_404844|7|0 200,1,0,1,2,0,1,0,0,0,1,2,0,0,0,208,
scooby_state_404844|26|0 194,0,0,3,4,0,1,0,0,0,0,1,2,2,1,208,
scooby_state_404844|50|0 192,0,1,0,6,0,0,0,2,1,0,1,1,2,2,208,
scooby_state_4048b4|48|0 176,0,1,2,2,2,2,2,2,4,2,3,2,3,5,208,
scooby_state_40482f|58|1 202,0,0,2,0,0,0,0,0,1,0,1,0,2,0,208,
scooby_state_403e90|30|1 1,1,1,1,3,0,0,1,1,2,1,192,1,2,1,208,
scooby_state_4048b4|30|0 153,2,4,4,2,4,3,3,3,4,4,6,4,5,6,207,
scooby_state_40482f|18|-19 197,0,4,1,1,0,0,1,0,0,1,0,0,2,0,207,
scooby_state_4049e5|6|5 174,0,0,2,1,2,0,1,1,1,0,0,0,0,25,207,
scooby_state_40482f|29|3 196,0,1,2,0,0,0,1,1,0,0,4,0,1,1,207,
scooby_state_404844|17|0 199,1,2,0,2,0,0,0,1,1,0,0,0,0,1,207,
scooby_state_403eb4|39|0 206,0,0,0,0,0,0,0,0,0,0,0,0,0,0,206,
scooby_state_40483c|44|-1 195,1,0,2,0,2,0,0,1,0,0,1,1,1,2,206,
scooby_state_403e90|40|1 0,2,0,2,2,0,1,2,3,1,0,185,3,2,3,206,
scooby_state_404844|51|0 195,0,1,0,2,1,0,1,1,0,3,1,1,0,0,206,
scooby_state_4048b4|24|0 152,1,4,1,3,4,4,4,3,4,6,6,5,5,4,206,
scooby_state_404a14|60|1 203,0,0,0,0,0,0,0,0,1,1,0,0,0,0,205,
scooby_state_40482f|48|43 195,0,0,0,0,1,2,1,2,0,0,0,3,0,1,205,
scooby_state_4049e5|61|5 160,0,0,6,1,3,1,1,0,0,0,1,1,0,31,205,
scooby_state_40482f|24|8 195,1,1,0,0,0,2,1,0,1,0,2,1,1,0,205,
scooby_state_4049e5|8|5 161,0,0,4,0,4,0,0,0,1,0,2,2,0,31,205,
scooby_state_40482f|0|-46 191,0,1,1,0,1,3,1,3,1,0,0,0,2,1,205,
scooby_state_404844|30|0 196,0,1,0,3,0,1,1,0,0,0,1,2,0,0,205,
scooby_state_40482f|0|-23 190,0,1,0,0,2,2,0,2,1,1,2,1,0,2,204,
scooby_state_40482f|62|51 177,3,7,0,0,2,2,0,1,2,2,0,1,5,2,204,
scooby_state_403e60|61|0 0,0,0,0,0,0,0,0,0,0,0,204,0,0,0,204,
scooby_state_40482f|30|7 182,1,2,1,3,1,0,0,4,0,1,1,3,0,5,204,
scooby_state_40482f|37|19 191,1,4,0,0,0,1,2,1,0,1,0,0,1,2,204,
scooby_state_404a14|38|1 203,0,0,0,0,0,0,0,0,0,1,0,0,0,0,204,
scooby_state_40482f|55|10 200,0,0,0,0,1,0,1,0,0,0,1,0,0,0,203,
scooby_state_40482f|24|-31 185,2,3,3,1,3,0,0,0,1,1,3,0,1,0,203,
scooby_state_4048bc|32|0 183,4,2,3,0,3,1,1,0,1,0,1,2,1,1,203,
scooby_state_4049e5|16|5 161,0,2,8,2,2,0,2,0,0,0,0,0,0,25,202,
scooby_state_404a14|61|1 201,0,0,0,0,0,0,0,0,0,1,0,0,0,0,202,
scooby_state_40482f|32|21 185,0,1,0,0,4,1,2,1,1,1,3,0,1,2,202,
scooby_state_40482f|61|11 194,0,2,0,1,1,1,0,2,1,0,0,0,0,0,202,
scooby_state_40482f|16|16 193,1,1,0,3,0,0,1,0,1,1,0,1,0,0,202,
scooby_state_4048aa|29|0 133,1,1,0,0,3,3,2,1,1,1,47,3,3,3,202,
scooby_state_40483c|2|-1 190,0,4,2,0,0,1,0,1,1,1,0,1,0,1,202,
scooby_state_404844|25|0 196,0,0,1,3,0,0,0,0,0,0,0,0,0,2,202,
scooby_state_4048c3|27|0 93,7,6,17,6,6,7,7,6,3,7,8,9,9,11,202,
scooby_state_40482f|59|-3 184,7,1,1,0,2,0,2,0,0,1,2,0,0,2,202,
scooby_state_40482f|24|-22 184,3,0,1,1,2,2,2,1,0,1,0,1,2,1,201,
scooby_state_403eec|33|0 199,0,0,0,0,0,2,0,0,0,0,0,0,0,0,201,
scooby_state_40482f|19|-19 186,0,1,1,1,0,0,3,1,0,0,3,2,1,2,201,
scooby_state_40482f|57|1 191,1,2,0,1,0,1,0,0,1,0,0,0,2,2,201,
scooby_state_40482f|15|-17 192,0,1,0,0,0,0,2,0,1,0,2,0,1,2,201,
scooby_state_404844|19|0 183,1,2,2,6,0,1,0,0,1,0,0,0,0,4,200,
scooby_state_40482f|4|-2 200,0,0,0,0,0,0,0,0,0,0,0,0,0,0,200,
scooby_state_40482f|0|-37 178,2,4,4,1,0,0,3,2,1,0,0,1,0,4,200,
scooby_state_40482f|54|36 190,0,0,0,0,0,0,0,0,2,1,4,1,1,0,199,
scooby_state_40482f|38|1 181,1,3,4,0,0,1,2,0,1,1,1,2,2,0,199,
scooby_state_40482f|15|-47 152,5,4,12,0,3,2,1,6,1,0,5,5,0,3,199,
scooby_state_403e60|45|0 0,0,0,0,0,0,0,0,0,0,0,198,0,0,0,198,
scooby_state_40482f|57|-3 179,9,3,0,0,1,0,1,1,0,0,0,0,2,2,198,
scooby_state_403e94|60|0 1,0,0,0,0,0,0,0,0,0,0,193,2,2,0,198,
scooby_state_40482f|62|6 177,1,1,2,0,0,3,0,2,2,1,3,4,0,2,198,
scooby_state_404844|18|0 189,0,0,0,5,0,0,0,0,0,1,0,0,0,3,198,
scooby_state_40482f|56|-6 174,4,1,5,2,2,0,0,2,0,2,1,3,1,1,198,
scooby_state_40482f|0|-13 180,2,0,0,0,2,1,1,0,1,0,4,3,2,2,198,
scooby_state_40483c|47|-1 186,0,2,2,0,0,2,2,1,1,0,1,0,0,1,198,
scooby_state_4049e5|36|3 0,0,0,192,0,0,0,1,1,1,1,0,0,1,0,197,
scooby_state_40482f|26|-28 174,1,1,2,1,1,0,3,4,2,2,2,1,2,1,197,
scooby_state_403e64|25|-1 126,0,0,4,2,2,1,1,0,1,1,49,0,2,8,197,
scooby_state_40482f|46|-16 185,2,0,1,0,3,1,0,1,2,1,0,0,0,1,197,
scooby_state_40482f|27|-30 189,0,0,0,2,0,1,0,1,2,0,0,1,0,1,197,
scooby_state_40482f|47|10 191,1,3,0,1,0,0,0,0,0,0,1,0,0,0,197,
scooby_state_40482f|16|-17 187,1,0,2,0,2,0,0,0,0,1,1,0,2,1,197,
scooby_state_40482f|55|31 177,0,2,0,0,0,2,0,1,3,1,0,2,2,6,196,
scooby_state_40482f|38|-24 182,4,1,1,2,0,0,0,0,0,1,3,0,0,2,196,
scooby_state_40482f|59|0 184,1,3,3,0,0,0,1,0,0,0,3,0,1,0,196,
scooby_state_40482f|63|23 187,0,1,0,0,0,0,1,1,2,0,1,1,2,0,196,
scooby_state_40482f|38|23 178,2,1,3,1,0,0,1,1,0,0,2,0,2,5,196,
scooby_state_404844|31|0 186,0,0,1,5,1,0,2,0,1,0,0,0,0,0,196,
scooby_state_404844|61|0 189,1,0,1,3,0,0,0,0,0,0,0,1,0,1,196,
scooby_state_40482f|28|-5 183,0,2,0,0,1,0,1,2,1,0,2,0,3,1,196,
scooby_state_403e64|43|-1 121,1,2,6,4,3,3,3,1,1,3,33,1,6,7,195,
scooby_state_404844|27|0 183,1,0,0,6,1,0,0,0,1,1,0,1,0,1,195,
scooby_state_40482f|16|1 182,1,1,2,0,2,1,0,0,1,1,0,0,1,3,195,
scooby_state_404a14|58|1 194,0,0,0,0,0,0,0,0,0,1,0,0,0,0,195,
scooby_state_403e64|38|-1 131,2,0,4,4,3,3,2,0,3,2,25,1,4,11,195,
scooby_state_40482f|32|17 172,0,4,2,1,2,3,2,0,2,0,2,0,3,2,195,
scooby_state_40482f|62|44 174,0,2,3,2,0,3,1,0,1,1,0,3,0,4,194,
scooby_state_404a14|59|1 193,0,0,0,0,0,0,0,0,0,1,0,0,0,0,194,
scooby_state_40482f|54|0 185,0,0,1,0,1,1,0,0,1,0,3,0,0,2,194,
scooby_state_40482f|28|13 173,0,0,2,8,0,0,0,0,0,1,9,0,0,1,194,
scooby_state_40482f|33|-14 189,1,0,0,0,0,0,0,0,0,0,0,3,0,1,194,
scooby_state_40482f|24|-37 168,2,1,2,1,3,4,3,0,4,1,0,1,1,2,193,
scooby_state_404a14|39|1 193,0,0,0,0,0,0,0,0,0,0,0,0,0,0,193,
scooby_state_40482f|3|1 184,1,1,0,0,1,1,0,1,0,0,0,1,1,2,193,
scooby_state_40482f|54|-6 171,0,0,9,3,0,2,1,1,1,2,0,1,1,1,193,
scooby_state_4049e5|49|36 128,1,3,20,1,3,1,3,1,2,3,13,2,1,11,193,
scooby_state_40482f|38|15 168,2,6,3,2,1,1,3,2,0,0,0,2,2,1,193,
scooby_state_404820|38|-1 0,1,0,0,0,0,0,0,0,0,0,191,0,0,1,193,
scooby_state_40482f|23|-7 178,0,1,2,0,0,1,0,0,2,1,1,3,0,4,193,
scooby_state_40482f|38|-22 165,4,0,1,1,1,0,1,7,0,2,1,3,3,4,193,
scooby_state_40482f|38|6 175,0,1,0,0,0,1,1,2,1,0,3,4,2,3,193,
scooby_state_40482f|19|0 183,2,0,1,0,0,1,0,0,0,2,1,0,2,0,192,
scooby_state_40482f|59|56 176,1,1,0,1,2,1,1,0,0,2,3,1,2,1,192,
scooby_state_40482f|0|-62 170,0,0,1,4,0,6,2,3,0,3,0,1,1,1,192,
scooby_state_403e90|11|1 1,2,1,1,3,0,1,1,1,1,1,175,1,2,1,192,
scooby_state_40482f|15|-38 115,1,0,0,71,0,0,0,0,0,3,0,2,0,0,192,
scooby_state_40482f|23|-37 175,3,2,0,1,1,2,0,2,3,0,0,1,0,1,191,
scooby_state_40482f|46|1 180,0,2,0,1,0,1,2,1,0,0,2,0,2,0,191,
scooby_state_40482f|38|38 163,1,2,0,2,0,1,1,0,2,0,12,1,3,3,191,
scooby_state_40483c|28|-1 173,0,3,1,1,0,2,1,0,2,0,0,2,3,3,191,
scooby_state_403e64|48|-1 121,2,0,6,4,1,0,2,0,0,0,40,2,4,9,191,
scooby_state_40482f|5|1 189,0,0,0,0,0,0,0,0,0,0,0,0,1,1,191,
scooby_state_404820|27|1 0,191,0,0,0,0,0,0,0,0,0,0,0,0,0,191,
scooby_state_40482f|52|-3 169,4,0,1,1,2,0,2,2,0,1,7,1,0,1,191,
scooby_state_40482f|5|-43 183,0,2,0,0,0,0,0,0,0,0,4,0,1,1,191,
scooby_state_403ee2|62|-1 186,0,0,0,1,0,0,1,0,2,0,0,0,1,0,191,
scooby_state_40482f|61|38 163,1,0,0,0,2,0,0,0,0,1,21,1,0,1,190,
scooby_state_40482f|57|20 170,1,1,1,0,2,1,2,2,1,1,2,0,1,5,190,
[...]
scooby_state_403cc0|51|19 0,0,1,0,0,0,0,0,0,0,0,0,0,0,0,1,
scooby_state_403cc0|11|-49 1,0,0,0,0,0,0,0,0,0,0,0,0,0,0,1,
scooby_state_403ce9|35|1 0,0,1,0,0,0,0,0,0,0,0,0,0,0,0,1,
scooby_state_403cc0|34|-22 0,0,0,0,0,1,0,0,0,0,0,0,0,0,0,1,
scooby_state_403cc0|10|-48 0,0,0,0,1,0,0,0,0,0,0,0,0,0,0,1,
scooby_state_404844|2|-10 0,0,0,0,0,0,0,0,0,0,1,0,0,0,0,1,
scooby_state_403cc0|24|-32 1,0,0,0,0,0,0,0,0,0,0,0,0,0,0,1,
scooby_state_403cc0|62|51 0,0,0,0,0,0,1,0,0,0,0,0,0,0,0,1,
scooby_state_403cc0|10|-40 0,0,0,0,0,0,0,0,1,0,0,0,0,0,0,1,
scooby_state_404841|52|32 1,0,0,0,0,0,0,0,0,0,0,0,0,0,0,1,
scooby_state_403cc0|63|5 0,0,0,0,0,0,0,0,0,0,0,1,0,0,0,1,
scooby_state_403cc0|30|-17 0,0,0,0,0,1,0,0,0,0,0,0,0,0,0,1,
scooby_state_404841|40|19 1,0,0,0,0,0,0,0,0,0,0,0,0,0,0,1,
scooby_state_403cc0|25|-5 0,0,0,0,0,0,1,0,0,0,0,0,0,0,0,1,
scooby_state_403cc0|57|51 0,0,0,0,0,0,1,0,0,0,0,0,0,0,0,1,
scooby_state_403cc0|4|-27 0,1,0,0,0,0,0,0,0,0,0,0,0,0,0,1,
scooby_state_403cc0|49|-2 1,0,0,0,0,0,0,0,0,0,0,0,0,0,0,1,
scooby_state_403cc0|55|-2 1,0,0,0,0,0,0,0,0,0,0,0,0,0,0,1,
scooby_state_403cc0|46|19 0,0,1,0,0,0,0,0,0,0,0,0,0,0,0,1,
scooby_state_404841|36|-18 0,0,0,0,0,1,0,0,0,0,0,0,0,0,0,1,
scooby_state_403cc0|5|-28 1,0,0,0,0,0,0,0,0,0,0,0,0,0,0,1,
scooby_state_404820|22|14 0,0,0,0,0,0,0,0,0,0,0,1,0,0,0,1,
scooby_state_403cc0|27|-26 0,0,0,0,0,0,0,0,0,0,0,1,0,0,0,1,
scooby_state_403cc0|55|14 1,0,0,0,0,0,0,0,0,0,0,0,0,0,0,1,
scooby_state_403cc0|59|38 1,0,0,0,0,0,0,0,0,0,0,0,0,0,0,1,
scooby_state_404820|53|43 0,1,0,0,0,0,0,0,0,0,0,0,0,0,0,1,
scooby_state_403cc0|63|42 0,0,0,0,0,0,0,0,0,0,0,1,0,0,0,1,
scooby_state_403cc0|58|15 0,0,0,0,1,0,0,0,0,0,0,0,0,0,0,1,
scooby_state_403cc0|42|17 0,0,1,0,0,0,0,0,0,0,0,0,0,0,0,1,
scooby_state_403cc0|24|1 1,0,0,0,0,0,0,0,0,0,0,0,0,0,0,1,
scooby_state_403cc0|32|-30 0,0,0,0,1,0,0,0,0,0,0,0,0,0,0,1,
scooby_state_403cc0|46|21 0,0,0,0,0,0,0,0,1,0,0,0,0,0,0,1,
scooby_state_403cc0|26|19 0,0,1,0,0,0,0,0,0,0,0,0,0,0,0,1,
scooby_state_404844|53|48 1,0,0,0,0,0,0,0,0,0,0,0,0,0,0,1,
scooby_state_403cc0|7|-49 1,0,0,0,0,0,0,0,0,0,0,0,0,0,0,1,
scooby_state_404823|18|8 0,0,1,0,0,0,0,0,0,0,0,0,0,0,0,1,
scooby_state_403ce9|9|1 0,0,0,0,0,0,1,0,0,0,0,0,0,0,0,1,
scooby_state_404076|21|-31 1,0,0,0,0,0,0,0,0,0,0,0,0,0,0,1,
scooby_state_403cc0|25|21 0,0,0,0,0,0,0,0,1,0,0,0,0,0,0,1,
scooby_state_403cc0|5|-21 0,0,0,0,1,0,0,0,0,0,0,0,0,0,0,1,
scooby_state_403cc0|12|-11 0,0,0,0,1,0,0,0,0,0,0,0,0,0,0,1,
scooby_state_403cc0|37|-22 0,0,0,0,0,0,0,1,0,0,0,0,0,0,0,1,
scooby_state_403cc0|22|-12 0,0,0,0,0,0,0,1,0,0,0,0,0,0,0,1,
scooby_state_403cc0|20|12 0,0,0,0,0,0,0,0,1,0,0,0,0,0,0,1,
scooby_state_404826|3|-10 1,0,0,0,0,0,0,0,0,0,0,0,0,0,0,1,
scooby_state_403ce9|40|0 0,0,0,0,0,0,0,0,0,1,0,0,0,0,0,1,
scooby_state_403cc0|26|-28 1,0,0,0,0,0,0,0,0,0,0,0,0,0,0,1,
scooby_state_404823|30|-16 0,0,0,0,0,0,0,0,0,1,0,0,0,0,0,1,
scooby_state_403cc0|33|22 1,0,0,0,0,0,0,0,0,0,0,0,0,0,0,1,
scooby_state_404826|3|-60 1,0,0,0,0,0,0,0,0,0,0,0,0,0,0,1,
scooby_state_403cc0|27|-11 0,0,0,0,1,0,0,0,0,0,0,0,0,0,0,1,
scooby_state_40409b|25|-7 0,0,0,0,0,0,0,0,0,0,0,1,0,0,0,1,
scooby_state_403cc0|21|1 1,0,0,0,0,0,0,0,0,0,0,0,0,0,0,1,
scooby_state_403cc0|41|8 0,0,0,0,0,1,0,0,0,0,0,0,0,0,0,1,
scooby_state_403cc0|54|41 0,0,0,1,0,0,0,0,0,0,0,0,0,0,0,1,
scooby_state_4049e5|32|-28 1,0,0,0,0,0,0,0,0,0,0,0,0,0,0,1,
scooby_state_403cc0|11|-28 1,0,0,0,0,0,0,0,0,0,0,0,0,0,0,1,
scooby_state_4049e5|62|27 1,0,0,0,0,0,0,0,0,0,0,0,0,0,0,1,
scooby_state_403cc0|34|23 0,0,0,0,0,0,0,0,0,0,0,1,0,0,0,1,
scooby_state_403cc0|16|-36 0,0,1,0,0,0,0,0,0,0,0,0,0,0,0,1,
scooby_state_403cc0|33|16 0,0,0,0,0,0,0,0,0,0,0,1,0,0,0,1,
scooby_state_403e94|12|0 0,0,0,0,0,0,0,0,0,0,0,1,0,0,0,1,
scooby_state_403cc0|9|-49 1,0,0,0,0,0,0,0,0,0,0,0,0,0,0,1,
scooby_state_403cc0|10|1 1,0,0,0,0,0,0,0,0,0,0,0,0,0,0,1,
scooby_state_403cc0|28|-8 0,0,0,0,0,0,0,0,1,0,0,0,0,0,0,1,
scooby_state_403cc0|11|8 0,0,0,0,0,1,0,0,0,0,0,0,0,0,0,1,
scooby_state_404826|63|39 1,0,0,0,0,0,0,0,0,0,0,0,0,0,0,1,
scooby_state_404823|54|10 1,0,0,0,0,0,0,0,0,0,0,0,0,0,0,1,
scooby_state_403cc0|58|45 1,0,0,0,0,0,0,0,0,0,0,0,0,0,0,1,
scooby_state_403cc0|2|-28 1,0,0,0,0,0,0,0,0,0,0,0,0,0,0,1,
scooby_state_403cc0|53|-7 0,0,0,0,1,0,0,0,0,0,0,0,0,0,0,1,
scooby_state_404826|62|53 0,0,0,0,0,0,0,0,0,0,0,1,0,0,0,1,
scooby_state_403cc0|53|48 0,0,1,0,0,0,0,0,0,0,0,0,0,0,0,1,
scooby_state_403cc0|42|16 0,0,0,0,0,0,0,0,0,0,0,1,0,0,0,1,
scooby_state_403cc0|4|-19 0,0,0,0,0,0,0,0,0,1,0,0,0,0,0,1,
scooby_state_403cc0|13|-36 0,0,1,0,0,0,0,0,0,0,0,0,0,0,0,1,
scooby_state_403cc0|44|4 0,0,0,0,1,0,0,0,0,0,0,0,0,0,0,1,
scooby_state_403cc0|56|31 0,0,0,0,1,0,0,0,0,0,0,0,0,0,0,1,
scooby_state_403cc0|16|-6 0,0,0,0,0,0,0,0,0,0,0,1,0,0,0,1,
scooby_state_403cc0|36|-4 0,0,0,0,1,0,0,0,0,0,0,0,0,0,0,1,
scooby_state_403cc0|39|-19 0,0,0,0,0,0,0,0,0,1,0,0,0,0,0,1,
scooby_state_403cc0|31|10 0,0,0,0,0,0,0,0,0,0,0,1,0,0,0,1,
scooby_state_403cc0|35|-26 0,0,1,0,0,0,0,0,0,0,0,0,0,0,0,1,
scooby_state_403cc0|17|3 1,0,0,0,0,0,0,0,0,0,0,0,0,0,0,1,
scooby_state_403cc0|57|-2 1,0,0,0,0,0,0,0,0,0,0,0,0,0,0,1,
scooby_state_404820|12|-46 0,1,0,0,0,0,0,0,0,0,0,0,0,0,0,1,
scooby_state_403cc0|60|6 0,0,0,0,0,0,0,0,0,1,0,0,0,0,0,1,
scooby_state_403cc0|53|7 1,0,0,0,0,0,0,0,0,0,0,0,0,0,0,1,
scooby_state_404844|5|-25 0,0,1,0,0,0,0,0,0,0,0,0,0,0,0,1,
scooby_state_404823|49|7 0,1,0,0,0,0,0,0,0,0,0,0,0,0,0,1,
scooby_state_4049e5|2|-57 1,0,0,0,0,0,0,0,0,0,0,0,0,0,0,1,
scooby_state_40409b|12|-10 0,0,0,0,0,0,0,0,0,0,0,1,0,0,0,1,
scooby_state_404826|55|7 1,0,0,0,0,0,0,0,0,0,0,0,0,0,0,1,
scooby_state_40459f|3|-33 0,0,0,0,1,0,0,0,0,0,0,0,0,0,0,1,
scooby_state_404820|18|-44 0,1,0,0,0,0,0,0,0,0,0,0,0,0,0,1,
scooby_state_40483c|53|52 1,0,0,0,0,0,0,0,0,0,0,0,0,0,0,1,
scooby_state_403e94|44|8 0,0,0,0,1,0,0,0,0,0,0,0,0,0,0,1,
scooby_state_404826|31|-9 1,0,0,0,0,0,0,0,0,0,0,0,0,0,0,1,
scooby_state_404826|45|23 0,0,1,0,0,0,0,0,0,0,0,0,0,0,0,1,
scooby_state_404826|25|12 1,0,0,0,0,0,0,0,0,0,0,0,0,0,0,1,
scooby_state_404076|41|25 0,0,0,0,1,0,0,0,0,0,0,0,0,0,0,1,
scooby_state_403e90|3|-18 0,0,0,0,0,0,0,0,0,0,0,1,0,0,0,1,
scooby_state_404841|17|13 0,0,0,0,0,0,0,0,0,0,0,0,1,0,0,1,
scooby_state_403e60|13|12 0,0,0,0,0,0,0,0,0,0,0,1,0,0,0,1,
scooby_state_404826|26|-31 0,0,0,0,0,0,0,0,0,0,1,0,0,0,0,1,
scooby_state_404820|12|12 0,0,0,0,1,0,0,0,0,0,0,0,0,0,0,1,
scooby_state_40409b|35|-13 1,0,0,0,0,0,0,0,0,0,0,0,0,0,0,1,
scooby_state_404841|29|-26 1,0,0,0,0,0,0,0,0,0,0,0,0,0,0,1,
scooby_state_404820|40|34 0,0,0,0,0,0,0,0,0,0,0,1,0,0,0,1,
scooby_state_404826|35|17 0,0,0,0,0,0,0,0,0,0,0,1,0,0,0,1,
scooby_state_404076|33|-20 1,0,0,0,0,0,0,0,0,0,0,0,0,0,0,1,
scooby_state_404076|32|-11 1,0,0,0,0,0,0,0,0,0,0,0,0,0,0,1,
scooby_state_40409b|42|20 1,0,0,0,0,0,0,0,0,0,0,0,0,0,0,1,
scooby_state_404820|21|11 0,0,1,0,0,0,0,0,0,0,0,0,0,0,0,1,
scooby_state_404826|36|6 1,0,0,0,0,0,0,0,0,0,0,0,0,0,0,1,
scooby_state_4049e5|4|-25 1,0,0,0,0,0,0,0,0,0,0,0,0,0,0,1,
scooby_state_404841|42|-12 0,0,0,1,0,0,0,0,0,0,0,0,0,0,0,1,
scooby_state_404841|7|-31 1,0,0,0,0,0,0,0,0,0,0,0,0,0,0,1,
scooby_state_4049e5|37|16 0,0,0,0,0,0,0,0,0,0,0,0,0,0,1,1,
scooby_state_404823|28|-6 0,0,0,0,0,0,0,0,0,0,0,0,0,1,0,1,
scooby_state_404826|27|19 1,0,0,0,0,0,0,0,0,0,0,0,0,0,0,1,
scooby_state_404844|8|-40 0,1,0,0,0,0,0,0,0,0,0,0,0,0,0,1,
scooby_state_404820|50|48 0,0,0,0,0,0,0,0,0,0,0,1,0,0,0,1,
scooby_state_404823|9|-54 0,0,0,0,0,0,0,0,0,0,0,1,0,0,0,1,
scooby_state_40409b|17|-2 0,0,0,0,1,0,0,0,0,0,0,0,0,0,0,1,
scooby_state_404076|26|25 0,0,0,0,0,0,0,0,0,1,0,0,0,0,0,1,
scooby_state_404826|8|-8 0,0,1,0,0,0,0,0,0,0,0,0,0,0,0,1,
scooby_state_40409b|5|-11 1,0,0,0,0,0,0,0,0,0,0,0,0,0,0,1,
scooby_state_404076|31|16 0,0,0,0,0,0,0,0,0,0,0,1,0,0,0,1,
scooby_state_404076|52|-8 0,0,0,0,0,0,0,0,0,0,0,1,0,0,0,1,
scooby_state_40409b|25|-6 0,0,0,1,0,0,0,0,0,0,0,0,0,0,0,1,
scooby_state_404076|26|1 1,0,0,0,0,0,0,0,0,0,0,0,0,0,0,1,
scooby_state_404076|57|56 0,0,0,0,0,0,0,1,0,0,0,0,0,0,0,1,
scooby_state_40409b|55|37 0,0,0,0,0,0,0,0,0,0,0,0,0,0,1,1,
scooby_state_404823|21|10 0,0,0,0,0,0,0,0,0,0,0,1,0,0,0,1,
scooby_state_4049e5|52|20 1,0,0,0,0,0,0,0,0,0,0,0,0,0,0,1,
scooby_state_404826|61|48 0,0,0,0,0,0,0,0,0,0,0,1,0,0,0,1,
scooby_state_404841|54|33 1,0,0,0,0,0,0,0,0,0,0,0,0,0,0,1,
scooby_state_404826|36|-23 1,0,0,0,0,0,0,0,0,0,0,0,0,0,0,1,
scooby_state_404076|32|-3 0,1,0,0,0,0,0,0,0,0,0,0,0,0,0,1,
scooby_state_404844|33|31 0,0,0,0,0,0,0,0,0,0,0,1,0,0,0,1,
scooby_state_404076|29|5 0,0,0,0,0,0,0,0,0,1,0,0,0,0,0,1,
scooby_state_403ee2|27|-2 1,0,0,0,0,0,0,0,0,0,0,0,0,0,0,1,
scooby_state_404826|23|2 0,0,0,0,0,0,0,0,0,0,0,0,1,0,0,1,
scooby_state_404841|59|40 1,0,0,0,0,0,0,0,0,0,0,0,0,0,0,1,
scooby_state_404826|17|-5 0,0,0,0,0,0,0,0,0,0,0,1,0,0,0,1,
scooby_state_404844|44|-7 1,0,0,0,0,0,0,0,0,0,0,0,0,0,0,1,
scooby_state_404076|61|2 1,0,0,0,0,0,0,0,0,0,0,0,0,0,0,1,
scooby_state_404823|10|8 0,0,0,0,0,0,0,0,0,0,0,1,0,0,0,1,
scooby_state_404648|32|1 0,0,0,0,0,0,0,0,0,1,0,0,0,0,0,1,
scooby_state_404844|47|23 0,0,0,0,0,0,0,0,1,0,0,0,0,0,0,1,
scooby_state_403e50|3|-43 0,0,1,0,0,0,0,0,0,0,0,0,0,0,0,1,
scooby_state_403e60|26|-34 0,0,0,0,0,0,0,0,0,0,0,1,0,0,0,1,
scooby_state_403e60|11|-26 0,0,0,0,0,0,0,0,0,0,0,1,0,0,0,1,
scooby_state_403e50|23|-17 0,0,0,0,1,0,0,0,0,0,0,0,0,0,0,1,
scooby_state_404826|3|-44 0,0,0,0,0,0,0,0,0,0,0,0,0,1,0,1,
scooby_state_403e50|43|18 0,0,1,0,0,0,0,0,0,0,0,0,0,0,0,1,
scooby_state_403e54|23|0 1,0,0,0,0,0,0,0,0,0,0,0,0,0,0,1,
scooby_state_403e50|42|-7 0,0,1,0,0,0,0,0,0,0,0,0,0,0,0,1,
scooby_state_403e50|15|0 0,0,0,0,0,0,0,0,0,0,0,1,0,0,0,1,
scooby_state_403e50|48|38 0,0,1,0,0,0,0,0,0,0,0,0,0,0,0,1,
scooby_state_403e50|62|25 0,0,1,0,0,0,0,0,0,0,0,0,0,0,0,1,
scooby_state_404841|12|-41 1,0,0,0,0,0,0,0,0,0,0,0,0,0,0,1,
scooby_state_403e50|33|0 0,0,0,0,0,0,0,0,0,0,0,1,0,0,0,1,
scooby_state_4049e5|58|54 0,0,0,0,0,0,0,0,1,0,0,0,0,0,0,1,
scooby_state_403e50|32|-14 0,0,1,0,0,0,0,0,0,0,0,0,0,0,0,1,
scooby_state_403e50|10|-23 0,0,1,0,0,0,0,0,0,0,0,0,0,0,0,1,
scooby_state_404841|13|-34 1,0,0,0,0,0,0,0,0,0,0,0,0,0,0,1,
scooby_state_403e54|63|49 0,0,0,0,0,0,0,0,0,0,0,0,0,0,1,1,
scooby_state_403e50|63|22 0,1,0,0,0,0,0,0,0,0,0,0,0,0,0,1,
scooby_state_404826|47|7 1,0,0,0,0,0,0,0,0,0,0,0,0,0,0,1,
scooby_state_403e54|0|-1 0,0,0,0,0,0,0,0,0,0,0,0,0,0,1,1,
scooby_state_404826|55|51 1,0,0,0,0,0,0,0,0,0,0,0,0,0,0,1,
scooby_state_403e42|4|0 0,0,0,0,0,0,1,0,0,0,0,0,0,0,0,1,
scooby_state_403d13|14|-1 0,0,0,0,1,0,0,0,0,0,0,0,0,0,0,1,
scooby_state_403cf4|15|0 0,0,0,0,1,0,0,0,0,0,0,0,0,0,0,1,
scooby_state_403cc0|48|47 1,0,0,0,0,0,0,0,0,0,0,0,0,0,0,1,
scooby_state_403cc0|50|7 1,0,0,0,0,0,0,0,0,0,0,0,0,0,0,1,
scooby_state_403cc0|25|-23 0,0,1,0,0,0,0,0,0,0,0,0,0,0,0,1,
scooby_state_403e54|0|0 1,0,0,0,0,0,0,0,0,0,0,0,0,0,0,1,
scooby_state_403cc0|54|51 0,0,0,0,0,0,1,0,0,0,0,0,0,0,0,1,
scooby_state_403cc0|57|6 0,0,0,0,0,0,0,0,0,0,0,0,1,0,0,1,
scooby_state_404826|53|11 0,0,1,0,0,0,0,0,0,0,0,0,0,0,0,1,
scooby_state_404823|46|41 0,0,0,0,0,0,0,0,0,0,0,1,0,0,0,1,
scooby_state_404820|19|-31 0,1,0,0,0,0,0,0,0,0,0,0,0,0,0,1,
scooby_state_404826|20|-7 0,0,0,0,0,0,0,0,0,0,0,1,0,0,0,1,
scooby_state_404826|29|-25 0,0,0,0,1,0,0,0,0,0,0,0,0,0,0,1,
scooby_state_404826|14|-23 1,0,0,0,0,0,0,0,0,0,0,0,0,0,0,1,
scooby_state_404841|48|24 0,1,0,0,0,0,0,0,0,0,0,0,0,0,0,1,
scooby_state_404820|11|-24 0,1,0,0,0,0,0,0,0,0,0,0,0,0,0,1,
scooby_state_404820|56|30 0,1,0,0,0,0,0,0,0,0,0,0,0,0,0,1,
scooby_state_404841|9|-18 1,0,0,0,0,0,0,0,0,0,0,0,0,0,0,1,
scooby_state_4048aa|14|-47 0,0,0,0,0,0,0,0,0,0,0,1,0,0,0,1,
scooby_state_404841|5|-45 0,0,0,0,1,0,0,0,0,0,0,0,0,0,0,1,
scooby_state_404820|15|-43 0,1,0,0,0,0,0,0,0,0,0,0,0,0,0,1,
scooby_state_404820|58|44 0,1,0,0,0,0,0,0,0,0,0,0,0,0,0,1,
scooby_state_404820|11|-49 0,1,0,0,0,0,0,0,0,0,0,0,0,0,0,1,
scooby_state_404076|3|-6 0,0,0,0,0,0,0,0,0,0,1,0,0,0,0,1,
scooby_state_4048bc|24|-6 1,0,0,0,0,0,0,0,0,0,0,0,0,0,0,1,
scooby_state_404820|14|8 0,0,0,0,0,0,0,0,0,0,0,1,0,0,0,1,
scooby_state_404826|47|16 0,0,0,0,0,0,0,0,0,0,0,0,0,0,1,1,
scooby_state_404823|4|1 0,0,0,0,0,0,1,0,0,0,0,0,0,0,0,1,
scooby_state_40459f|63|41 1,0,0,0,0,0,0,0,0,0,0,0,0,0,0,1,
scooby_state_4049e5|39|14 0,0,0,0,1,0,0,0,0,0,0,0,0,0,0,1,
scooby_state_404823|46|-4 0,1,0,0,0,0,0,0,0,0,0,0,0,0,0,1,
scooby_state_404820|40|38 0,1,0,0,0,0,0,0,0,0,0,0,0,0,0,1,
scooby_state_403ee2|20|-2 1,0,0,0,0,0,0,0,0,0,0,0,0,0,0,1,
scooby_state_4049e5|10|-53 0,0,0,0,1,0,0,0,0,0,0,0,0,0,0,1,
scooby_state_4048bc|8|-16 1,0,0,0,0,0,0,0,0,0,0,0,0,0,0,1,
scooby_state_4048c3|58|33 1,0,0,0,0,0,0,0,0,0,0,0,0,0,0,1,
scooby_state_403e64|35|-22 0,1,0,0,0,0,0,0,0,0,0,0,0,0,0,1,
scooby_state_404684|5|2 1,0,0,0,0,0,0,0,0,0,0,0,0,0,0,1,
scooby_state_403e60|11|-52 0,0,0,0,0,0,0,0,0,0,0,1,0,0,0,1,

scooby_action_0_deg_dist 0,118176,0,0,0,0,0,0,0,0,0,0,0,0,0,0,
scooby_action_-6_deg_dist 0,8204,92,0,25,0,0,0,0,0,0,0,0,0,0,0,
scooby_action_4_deg_dist 0,17369,215,0,62,0,3,0,0,0,0,0,0,0,0,0,
scooby_action_1_deg_dist 0,952780,57778,0,88156,0,279206,0,0,0,0,0,0,0,0,0,
scooby_action_30_deg_dist 0,6491,19,0,6,0,0,0,0,0,0,0,0,0,0,0,
scooby_action_5_deg_dist 0,36227,2519,0,1965,0,319,0,0,0,0,0,0,0,0,0,
scooby_action_3_deg_dist 0,77394,1914,0,2974,0,16487,0,0,0,0,0,0,0,0,0,
scooby_action_32_deg_dist 0,6557,87,0,188,0,1254,0,0,0,0,0,0,0,0,0,
scooby_action_10_deg_dist 0,44141,16806,0,41810,0,385158,0,0,0,0,0,0,0,0,0,
scooby_action_11_deg_dist 0,8793,35,0,10,0,3,0,0,0,0,0,0,0,0,0,
scooby_action_12_deg_dist 0,7808,67,0,28,0,0,0,0,0,0,0,0,0,0,0,
scooby_action_22_deg_dist 0,6890,37,0,6,0,0,0,0,0,0,0,0,0,0,0,
scooby_action_23_deg_dist 0,6986,22,0,3,0,0,0,0,0,0,0,0,0,0,0,
scooby_action_-1_deg_dist 0,64505,3262,0,4158,0,10055,0,0,0,0,0,0,0,0,0,
scooby_action_-3_deg_dist 0,8576,84,0,40,0,0,0,0,0,0,0,0,0,0,0,

scooby_track_called 2285750
scooby_track_same_address 86419
scooby_track_evict 2199075

scooby_reward_demand_called 2285750
scooby_reward_demand_pt_not_found 1725499
scooby_reward_demand_pt_found 560251
scooby_reward_demand_pt_found_total 560251
scooby_reward_demand_has_reward 2297
scooby_reward_train_called 1517598
scooby_reward_assign_reward_called 2199109
scooby_reward_no_pref 118176
scooby_reward_incorrect 1399422
scooby_reward_correct_untimely 410066
scooby_reward_correct_timely 147888
scooby_reward_out_of_bounds 123557
scooby_reward_tracker_hit 0

scooby_reward_none_low_bw 118176
scooby_reward_none_high_bw 0
scooby_reward_incorrect_low_bw 1399422
scooby_reward_incorrect_high_bw 0
scooby_reward_correct_untimely_low_bw 410066
scooby_reward_correct_untimely_high_bw 0
scooby_reward_correct_timely_low_bw 147888
scooby_reward_correct_timely_high_bw 0
scooby_reward_out_of_bounds_low_bw 123557
scooby_reward_out_of_bounds_high_bw 0
scooby_reward_tracker_hit_low_bw 0
scooby_reward_tracker_hit_high_bw 0

scooby_reward_1 0,1248643,65551,20793,20250,0,
scooby_reward_3 0,16034,18724,5656,4729,0,
scooby_reward_4 0,13425,1354,1108,941,0,
scooby_reward_5 0,30388,1593,5008,3308,0,
scooby_reward_10 0,14800,285233,110264,76621,0,
scooby_reward_11 0,6084,439,266,1692,0,
scooby_reward_12 0,5462,317,169,1589,0,
scooby_reward_22 0,3944,192,98,2400,0,
scooby_reward_23 0,3876,211,109,2527,0,
scooby_reward_30 0,3059,138,83,3055,0,
scooby_reward_32 0,2771,124,938,4067,0,
scooby_reward_-1 0,36970,35510,3187,1332,0,
scooby_reward_-3 0,7279,355,108,348,0,
scooby_reward_-6 0,6687,325,101,698,0,
scooby_reward_0 118176,0,0,0,0,0,

scooby_train_called 2199074
scooby_train_compute_reward 1517598

scooby_register_fill_called 1529525
scooby_register_fill_set 1030256
scooby_register_fill_set_total 1030256

scooby_register_prefetch_hit_called 2729796
scooby_register_prefetch_hit_set 1082357
scooby_register_prefetch_hit_set_total 1082357

scooby_pref_issue_scooby 4306851

learning_engine_featurewise.action.called 2285750
learning_engine_featurewise.action.explore 4158
learning_engine_featurewise.action.exploit 2281592
learning_engine_featurewise.action.fallback 1325661
learning_engine_featurewise.action.dyn_fallback_saved_bw 0
learning_engine_featurewise.action.dyn_fallback_saved_bw_acc 210386
learning_engine_featurewise.action.index_1_explored 269
learning_engine_featurewise.action.index_1_exploited 1377651
learning_engine_featurewise.action.index_3_explored 296
learning_engine_featurewise.action.index_3_exploited 98473
learning_engine_featurewise.action.index_4_explored 292
learning_engine_featurewise.action.index_4_exploited 17357
learning_engine_featurewise.action.index_5_explored 256
learning_engine_featurewise.action.index_5_exploited 40774
learning_engine_featurewise.action.index_10_explored 311
learning_engine_featurewise.action.index_10_exploited 487604
learning_engine_featurewise.action.index_11_explored 278
learning_engine_featurewise.action.index_11_exploited 8563
learning_engine_featurewise.action.index_12_explored 272
learning_engine_featurewise.action.index_12_exploited 7631
learning_engine_featurewise.action.index_22_explored 278
learning_engine_featurewise.action.index_22_exploited 6655
learning_engine_featurewise.action.index_23_explored 280
learning_engine_featurewise.action.index_23_exploited 6731
learning_engine_featurewise.action.index_30_explored 272
learning_engine_featurewise.action.index_30_exploited 6244
learning_engine_featurewise.action.index_32_explored 236
learning_engine_featurewise.action.index_32_exploited 7850
learning_engine_featurewise.action.index_-1_explored 284
learning_engine_featurewise.action.index_-1_exploited 81696
learning_engine_featurewise.action.index_-3_explored 284
learning_engine_featurewise.action.index_-3_exploited 8416
learning_engine_featurewise.action.index_-6_explored 262
learning_engine_featurewise.action.index_-6_exploited 8059
learning_engine_featurewise.action.index_0_explored 288
learning_engine_featurewise.action.index_0_exploited 117888
learning_engine_featurewise.learn.called 2199074
learning_engine_featurewise.learn.su_skip_PC 0
learning_engine_featurewise.learn.su_skip_PC_Delta 0

learning_engine_featurewise.q_value_histogram.bucket_0 111915
learning_engine_featurewise.q_value_histogram.bucket_1 13403
learning_engine_featurewise.q_value_histogram.bucket_2 1419134
learning_engine_featurewise.q_value_histogram.bucket_3 65271
learning_engine_featurewise.q_value_histogram.bucket_4 79209
learning_engine_featurewise.q_value_histogram.bucket_5 72395
learning_engine_featurewise.q_value_histogram.bucket_6 520265
learning_engine_featurewise.q_value_histogram.bucket_7 0

learning_engine_featurewise.consensus.total 2281592
learning_engine_featurewise.consensus.feature_align_PC 2010939
learning_engine_featurewise.consensus.feature_align_PC_ratio 0.88
learning_engine_featurewise.consensus.feature_align_PC_Delta 2081839
learning_engine_featurewise.consensus.feature_align_PC_Delta_ratio 0.91
learning_engine_featurewise.consensus.feature_align_all 1936503
learning_engine_featurewise.consensus.feature_align_all_ratio 0.85

learning_engine_featurewise.feature_PC_min_weight 1000000.00000000
learning_engine_featurewise.feature_PC_max_weight 0.00000000
learning_engine_featurewise.feature_PC_Delta_min_weight 1000000.00000000
learning_engine_featurewise.feature_PC_Delta_max_weight 0.00000000
unique_pcs 188
unique_pages 9741
unique_trigger_pcs 84
total_bitmaps_seen 0
unique_bitmaps_seen 0

scooby_bw_epochs 737900
scooby_bw_level_0 629385
scooby_bw_level_1 65765
scooby_bw_level_2 22617
scooby_bw_level_3 20133

scooby_ipc_epochs 0
scooby_ipc_level_0 0
scooby_ipc_level_1 0
scooby_ipc_level_2 0
scooby_ipc_level_3 0

scooby_cache_acc_epochs 183166
scooby_cache_acc_level_0 67396
scooby_cache_acc_level_1 19081
scooby_cache_acc_level_2 20889
scooby_cache_acc_level_3 15563
scooby_cache_acc_level_4 11334
scooby_cache_acc_level_5 18974
scooby_cache_acc_level_6 11978
scooby_cache_acc_level_7 5826
scooby_cache_acc_level_8 2768
scooby_cache_acc_level_9 9357

Channel_0_RQ_row_buffer_hit 372316
Channel_0_RQ_row_buffer_miss 515307
Channel_0_WQ_row_buffer_hit 520
Channel_0_WQ_row_buffer_miss 2744
Channel_0_WQ_full 0
Channel_0_dbus_congested 463222

avg_congested_cycle 9

DRAM_bw_pochs 737900
DRAM_bw_level_0 629385
DRAM_bw_level_1 65765
DRAM_bw_level_2 22617
DRAM_bw_level_3 20133
