*************************************************
   ChampSim Multicore Out-of-Order Simulator
   Last compiled: Apr  3 2025 20:54:34
*************************************************
parsing config file: /home/zir/Pythia/config/nopref.ini

trace_0 /home/zir/ChampSim/ML-DPC/ChampSimTraces/spec17/602.gcc-s0.trace.xz
adding L2C_PREFETCHER: NONE
Initialize SHIP state
warmup_instructions 10000000
simulation_instructions 50000000
champsim_seed 163
measure_ipc 0
measure_ipc_epoch 1000
measure_dram_bw 1
measure_dram_bw_epoch 256
measure_cache_acc 1
measure_cache_acc_epoch 1024
l1d_perfect 0
l2c_perfect 0
llc_perfect 0
l1d_semi_perfect 0
l2c_semi_perfect 0
llc_semi_perfect 0
semi_perfect_cache_page_buffer_size 64

num_cpus 1
cpu_freq 4000
dram_io_freq 2400
page_size 4096
block_size 64
max_read_per_cycle 8
max_fill_per_cycle 1
dram_channels 1
log2_dram_channels 0
dram_ranks 1
dram_banks 8
dram_rows 65536
dram_columns 128
dram_row_size 8
dram_size 4096
dram_pages 1048576

fetch_width 6
decode_width 6
exec_width 4
lq_width 2
sq_width 2
retire_width 4
scheduler_size 128
branch_mispredict_penalty 20
rob_size 256
lq_size 72
sq_size 56
num_instr_destinations_sparc 4
num_instr_destinations 2
num_instr_sources 4

itlb_set 16
itlb_way 8
itlb_rq_size 16
itlb_wq_size 16
itlb_pq_size 0
itlb_mshr_size 8
itlb_latency 1

dtlb_set 16
dtlb_way 4
dtlb_rq_size 16
dtlb_wq_size 16
dtlb_pq_size 0
dtlb_mshr_size 8
dtlb_latency 1

stlb_set 128
stlb_way 12
stlb_rq_size 32
stlb_wq_size 32
stlb_pq_size 0
stlb_mshr_size 16
stlb_latency 8

l1i_size 32
l1i_set 64
l1i_way 8
l1i_rq_size 64
l1i_wq_size 64
l1i_pq_size 8
l1i_mshr_size 8
l1i_latency 1

l1d_size 32
l1d_set 64
l1d_way 8
l1d_rq_size 64
l1d_wq_size 64
l1d_pq_size 8
l1d_mshr_size 16
l1d_latency 4

l2c_size 256
l2c_set 512
l2c_way 8
l2c_rq_size 32
l2c_wq_size 32
l2c_pq_size 32
l2c_mshr_size 32
l2c_latency 10

llc_size 2048
llc_set 2048
llc_way 16
llc_rq_size 32
llc_wq_size 32
llc_pq_size 32
llc_mshr_size 64
llc_latency 20

dram_channel_width 8
dram_wq_size 64
dram_rq_size 64
tRP 15
tRCD 15
tCAS 12.5
dram_dbus_turn_around_time 30
dram_write_high_wm 56
dram_write_low_wm 48
min_dram_writes_per_switch 16
dram_mtps 2400
dram_dbus_return_time 13


Heartbeat CPU  0 instructions:    1000000 cycles:     735974 heartbeat IPC: 1.35874 cumulative IPC: 1.35874 (Simulation time: 0 hr 0 min 1 sec) 
Heartbeat CPU  0 instructions:    2000002 cycles:    1470428 heartbeat IPC: 1.36156 cumulative IPC: 1.36015 (Simulation time: 0 hr 0 min 2 sec) 
Heartbeat CPU  0 instructions:    3000000 cycles:    2205965 heartbeat IPC: 1.35955 cumulative IPC: 1.35995 (Simulation time: 0 hr 0 min 4 sec) 
Heartbeat CPU  0 instructions:    4000000 cycles:    2941317 heartbeat IPC: 1.35989 cumulative IPC: 1.35994 (Simulation time: 0 hr 0 min 5 sec) 
Heartbeat CPU  0 instructions:    5000000 cycles:    3676801 heartbeat IPC: 1.35965 cumulative IPC: 1.35988 (Simulation time: 0 hr 0 min 6 sec) 
Heartbeat CPU  0 instructions:    6000003 cycles:    4412256 heartbeat IPC: 1.35971 cumulative IPC: 1.35985 (Simulation time: 0 hr 0 min 7 sec) 
Heartbeat CPU  0 instructions:    7000001 cycles:    5145539 heartbeat IPC: 1.36373 cumulative IPC: 1.36040 (Simulation time: 0 hr 0 min 9 sec) 
Heartbeat CPU  0 instructions:    8000000 cycles:    5878657 heartbeat IPC: 1.36404 cumulative IPC: 1.36085 (Simulation time: 0 hr 0 min 10 sec) 
Heartbeat CPU  0 instructions:    9000001 cycles:    6615148 heartbeat IPC: 1.35779 cumulative IPC: 1.36051 (Simulation time: 0 hr 0 min 11 sec) 
Heartbeat CPU  0 instructions:   10000001 cycles:    7352125 heartbeat IPC: 1.35689 cumulative IPC: 1.36015 (Simulation time: 0 hr 0 min 12 sec) 

Warmup complete CPU  0 instructions:   10000001 cycles:    7352125 (Simulation time: 0 hr 0 min 12 sec) 

Heartbeat CPU  0 instructions:   11000002 cycles:   11542698 heartbeat IPC: 0.23863 cumulative IPC: 0.23863 (Simulation time: 0 hr 0 min 14 sec) 
Heartbeat CPU  0 instructions:   12000000 cycles:   15734325 heartbeat IPC: 0.23857 cumulative IPC: 0.23860 (Simulation time: 0 hr 0 min 17 sec) 
Heartbeat CPU  0 instructions:   13000000 cycles:   19938403 heartbeat IPC: 0.23786 cumulative IPC: 0.23835 (Simulation time: 0 hr 0 min 19 sec) 
Heartbeat CPU  0 instructions:   14000000 cycles:   24139641 heartbeat IPC: 0.23803 cumulative IPC: 0.23827 (Simulation time: 0 hr 0 min 21 sec) 
Heartbeat CPU  0 instructions:   15000000 cycles:   28337286 heartbeat IPC: 0.23823 cumulative IPC: 0.23826 (Simulation time: 0 hr 0 min 23 sec) 
Heartbeat CPU  0 instructions:   16000000 cycles:   32546239 heartbeat IPC: 0.23759 cumulative IPC: 0.23815 (Simulation time: 0 hr 0 min 25 sec) 
Heartbeat CPU  0 instructions:   17000000 cycles:   36753249 heartbeat IPC: 0.23770 cumulative IPC: 0.23809 (Simulation time: 0 hr 0 min 27 sec) 
Heartbeat CPU  0 instructions:   18000002 cycles:   40942634 heartbeat IPC: 0.23870 cumulative IPC: 0.23816 (Simulation time: 0 hr 0 min 29 sec) 
Heartbeat CPU  0 instructions:   19000000 cycles:   45129953 heartbeat IPC: 0.23882 cumulative IPC: 0.23823 (Simulation time: 0 hr 0 min 32 sec) 
Heartbeat CPU  0 instructions:   20000000 cycles:   49329305 heartbeat IPC: 0.23813 cumulative IPC: 0.23822 (Simulation time: 0 hr 0 min 34 sec) 
Heartbeat CPU  0 instructions:   21000000 cycles:   53534317 heartbeat IPC: 0.23781 cumulative IPC: 0.23819 (Simulation time: 0 hr 0 min 36 sec) 
Heartbeat CPU  0 instructions:   22000000 cycles:   57734063 heartbeat IPC: 0.23811 cumulative IPC: 0.23818 (Simulation time: 0 hr 0 min 38 sec) 
Heartbeat CPU  0 instructions:   23000003 cycles:   61930996 heartbeat IPC: 0.23827 cumulative IPC: 0.23819 (Simulation time: 0 hr 0 min 40 sec) 
Heartbeat CPU  0 instructions:   24000000 cycles:   66127484 heartbeat IPC: 0.23829 cumulative IPC: 0.23820 (Simulation time: 0 hr 0 min 42 sec) 
Heartbeat CPU  0 instructions:   25000002 cycles:   70327282 heartbeat IPC: 0.23811 cumulative IPC: 0.23819 (Simulation time: 0 hr 0 min 44 sec) 
Heartbeat CPU  0 instructions:   26000003 cycles:   74520253 heartbeat IPC: 0.23849 cumulative IPC: 0.23821 (Simulation time: 0 hr 0 min 47 sec) 
Heartbeat CPU  0 instructions:   27000000 cycles:   78696599 heartbeat IPC: 0.23944 cumulative IPC: 0.23828 (Simulation time: 0 hr 0 min 49 sec) 
Heartbeat CPU  0 instructions:   28000000 cycles:   82841369 heartbeat IPC: 0.24127 cumulative IPC: 0.23844 (Simulation time: 0 hr 0 min 51 sec) 
Heartbeat CPU  0 instructions:   29000003 cycles:   87027035 heartbeat IPC: 0.23891 cumulative IPC: 0.23847 (Simulation time: 0 hr 0 min 53 sec) 
Heartbeat CPU  0 instructions:   30000003 cycles:   91213539 heartbeat IPC: 0.23886 cumulative IPC: 0.23849 (Simulation time: 0 hr 0 min 55 sec) 
Heartbeat CPU  0 instructions:   31000000 cycles:   95378857 heartbeat IPC: 0.24008 cumulative IPC: 0.23856 (Simulation time: 0 hr 0 min 57 sec) 
Heartbeat CPU  0 instructions:   32000000 cycles:   99609863 heartbeat IPC: 0.23635 cumulative IPC: 0.23846 (Simulation time: 0 hr 0 min 59 sec) 
Heartbeat CPU  0 instructions:   33000003 cycles:  103797503 heartbeat IPC: 0.23880 cumulative IPC: 0.23848 (Simulation time: 0 hr 1 min 2 sec) 
Heartbeat CPU  0 instructions:   34000000 cycles:  107984793 heartbeat IPC: 0.23882 cumulative IPC: 0.23849 (Simulation time: 0 hr 1 min 4 sec) 
Heartbeat CPU  0 instructions:   35000003 cycles:  112179006 heartbeat IPC: 0.23842 cumulative IPC: 0.23849 (Simulation time: 0 hr 1 min 6 sec) 
Heartbeat CPU  0 instructions:   36000000 cycles:  116372875 heartbeat IPC: 0.23844 cumulative IPC: 0.23849 (Simulation time: 0 hr 1 min 8 sec) 
Heartbeat CPU  0 instructions:   37000000 cycles:  120545810 heartbeat IPC: 0.23964 cumulative IPC: 0.23853 (Simulation time: 0 hr 1 min 10 sec) 
Heartbeat CPU  0 instructions:   38000000 cycles:  124739532 heartbeat IPC: 0.23845 cumulative IPC: 0.23853 (Simulation time: 0 hr 1 min 12 sec) 
Heartbeat CPU  0 instructions:   39000001 cycles:  128949971 heartbeat IPC: 0.23751 cumulative IPC: 0.23849 (Simulation time: 0 hr 1 min 14 sec) 
Heartbeat CPU  0 instructions:   40000000 cycles:  133123166 heartbeat IPC: 0.23962 cumulative IPC: 0.23853 (Simulation time: 0 hr 1 min 17 sec) 
Heartbeat CPU  0 instructions:   41000001 cycles:  137325129 heartbeat IPC: 0.23798 cumulative IPC: 0.23851 (Simulation time: 0 hr 1 min 19 sec) 
Heartbeat CPU  0 instructions:   42000003 cycles:  141520443 heartbeat IPC: 0.23836 cumulative IPC: 0.23851 (Simulation time: 0 hr 1 min 21 sec) 
Heartbeat CPU  0 instructions:   43000000 cycles:  145720414 heartbeat IPC: 0.23810 cumulative IPC: 0.23849 (Simulation time: 0 hr 1 min 23 sec) 
Heartbeat CPU  0 instructions:   44000000 cycles:  149906877 heartbeat IPC: 0.23887 cumulative IPC: 0.23850 (Simulation time: 0 hr 1 min 25 sec) 
Heartbeat CPU  0 instructions:   45000000 cycles:  154093983 heartbeat IPC: 0.23883 cumulative IPC: 0.23851 (Simulation time: 0 hr 1 min 27 sec) 
Heartbeat CPU  0 instructions:   46000002 cycles:  158300010 heartbeat IPC: 0.23775 cumulative IPC: 0.23849 (Simulation time: 0 hr 1 min 29 sec) 
Heartbeat CPU  0 instructions:   47000001 cycles:  162510932 heartbeat IPC: 0.23748 cumulative IPC: 0.23847 (Simulation time: 0 hr 1 min 32 sec) 
Heartbeat CPU  0 instructions:   48000000 cycles:  166696277 heartbeat IPC: 0.23893 cumulative IPC: 0.23848 (Simulation time: 0 hr 1 min 34 sec) 
Heartbeat CPU  0 instructions:   49000001 cycles:  170881071 heartbeat IPC: 0.23896 cumulative IPC: 0.23849 (Simulation time: 0 hr 1 min 36 sec) 
Heartbeat CPU  0 instructions:   50000003 cycles:  175077458 heartbeat IPC: 0.23830 cumulative IPC: 0.23849 (Simulation time: 0 hr 1 min 38 sec) 
Heartbeat CPU  0 instructions:   51000002 cycles:  179275610 heartbeat IPC: 0.23820 cumulative IPC: 0.23848 (Simulation time: 0 hr 1 min 40 sec) 
Heartbeat CPU  0 instructions:   52000000 cycles:  183461815 heartbeat IPC: 0.23888 cumulative IPC: 0.23849 (Simulation time: 0 hr 1 min 42 sec) 
Heartbeat CPU  0 instructions:   53000002 cycles:  187656420 heartbeat IPC: 0.23840 cumulative IPC: 0.23849 (Simulation time: 0 hr 1 min 44 sec) 
Heartbeat CPU  0 instructions:   54000003 cycles:  191860201 heartbeat IPC: 0.23788 cumulative IPC: 0.23847 (Simulation time: 0 hr 1 min 47 sec) 
Heartbeat CPU  0 instructions:   55000000 cycles:  196067001 heartbeat IPC: 0.23771 cumulative IPC: 0.23845 (Simulation time: 0 hr 1 min 49 sec) 
Heartbeat CPU  0 instructions:   56000000 cycles:  200250923 heartbeat IPC: 0.23901 cumulative IPC: 0.23847 (Simulation time: 0 hr 1 min 51 sec) 
Heartbeat CPU  0 instructions:   57000001 cycles:  204437254 heartbeat IPC: 0.23887 cumulative IPC: 0.23848 (Simulation time: 0 hr 1 min 53 sec) 
Heartbeat CPU  0 instructions:   58000003 cycles:  208633920 heartbeat IPC: 0.23828 cumulative IPC: 0.23847 (Simulation time: 0 hr 1 min 55 sec) 
Heartbeat CPU  0 instructions:   59000000 cycles:  212833954 heartbeat IPC: 0.23809 cumulative IPC: 0.23846 (Simulation time: 0 hr 1 min 57 sec) 
Heartbeat CPU  0 instructions:   60000000 cycles:  217031895 heartbeat IPC: 0.23821 cumulative IPC: 0.23846 (Simulation time: 0 hr 1 min 59 sec) 
Finished CPU 0 instructions: 50000001 cycles: 209679778 cumulative IPC: 0.23846 (Simulation time: 0 hr 1 min 59 sec) 

ChampSim completed all CPUs

[ROI Statistics]
Core_0_instructions 50000001
Core_0_cycles 209679778
Core_0_IPC 0.23846

Core_0_branch_prediction_accuracy 96.27842
Core_0_branch_MPKI 8.73810
Core_0_average_ROB_occupancy_at_mispredict 84.24737

Core_0_L1D_total_access 15096456
Core_0_L1D_total_hit 13738609
Core_0_L1D_total_miss 1357847
Core_0_L1D_loads 10244708
Core_0_L1D_load_hit 8887257
Core_0_L1D_load_miss 1357451
Core_0_L1D_RFOs 4851748
Core_0_L1D_RFO_hit 4851352
Core_0_L1D_RFO_miss 396
Core_0_L1D_prefetches 0
Core_0_L1D_prefetch_hit 0
Core_0_L1D_prefetch_miss 0
Core_0_L1D_writebacks 0
Core_0_L1D_writeback_hit 0
Core_0_L1D_writeback_miss 0
Core_0_L1D_prefetch_requested 0
Core_0_L1D_prefetch_dropped 0
Core_0_L1D_prefetch_issued 0
Core_0_L1D_prefetch_filled 0
Core_0_L1D_prefetch_useful 0
Core_0_L1D_prefetch_useless 0
Core_0_L1D_prefetch_late 0
Core_0_L1D_average_miss_latency 83.92056

Core_0_L1D_rq_access 13894899
Core_0_L1D_rq_forward 0
Core_0_L1D_rq_merged 3356716
Core_0_L1D_rq_to_cache 10538183
Core_0_L1D_rq_full 0

Core_0_L1D_wq_access 4852413
Core_0_L1D_wq_forward 0
Core_0_L1D_wq_merged 667
Core_0_L1D_wq_to_cache 4851746
Core_0_L1D_wq_full 0

Core_0_L1D_pq_access 0
Core_0_L1D_pq_forward 0
Core_0_L1D_pq_merged 0
Core_0_L1D_pq_to_cache 0
Core_0_L1D_pq_full 0

Core_0_L1D_acc_epochs 210474
Core_0_L1D_acc_level_0 210474
Core_0_L1D_acc_level_1 0
Core_0_L1D_acc_level_2 0
Core_0_L1D_acc_level_3 0
Core_0_L1D_acc_level_4 0
Core_0_L1D_acc_level_5 0
Core_0_L1D_acc_level_6 0
Core_0_L1D_acc_level_7 0
Core_0_L1D_acc_level_8 0
Core_0_L1D_acc_level_9 0

Core_0_L1I_total_access 10675591
Core_0_L1I_total_hit 10675591
Core_0_L1I_total_miss 0
Core_0_L1I_loads 10675591
Core_0_L1I_load_hit 10675591
Core_0_L1I_load_miss 0
Core_0_L1I_RFOs 0
Core_0_L1I_RFO_hit 0
Core_0_L1I_RFO_miss 0
Core_0_L1I_prefetches 0
Core_0_L1I_prefetch_hit 0
Core_0_L1I_prefetch_miss 0
Core_0_L1I_writebacks 0
Core_0_L1I_writeback_hit 0
Core_0_L1I_writeback_miss 0
Core_0_L1I_prefetch_requested 0
Core_0_L1I_prefetch_dropped 0
Core_0_L1I_prefetch_issued 0
Core_0_L1I_prefetch_filled 0
Core_0_L1I_prefetch_useful 0
Core_0_L1I_prefetch_useless 0
Core_0_L1I_prefetch_late 0
Core_0_L1I_average_miss_latency -nan

Core_0_L1I_rq_access 50000124
Core_0_L1I_rq_forward 0
Core_0_L1I_rq_merged 39324533
Core_0_L1I_rq_to_cache 10675591
Core_0_L1I_rq_full 0

Core_0_L1I_wq_access 0
Core_0_L1I_wq_forward 0
Core_0_L1I_wq_merged 0
Core_0_L1I_wq_to_cache 0
Core_0_L1I_wq_full 0

Core_0_L1I_pq_access 0
Core_0_L1I_pq_forward 0
Core_0_L1I_pq_merged 0
Core_0_L1I_pq_to_cache 0
Core_0_L1I_pq_full 0

Core_0_L1I_acc_epochs 210474
Core_0_L1I_acc_level_0 210474
Core_0_L1I_acc_level_1 0
Core_0_L1I_acc_level_2 0
Core_0_L1I_acc_level_3 0
Core_0_L1I_acc_level_4 0
Core_0_L1I_acc_level_5 0
Core_0_L1I_acc_level_6 0
Core_0_L1I_acc_level_7 0
Core_0_L1I_acc_level_8 0
Core_0_L1I_acc_level_9 0

Core_0_L2C_total_access 1361071
Core_0_L2C_total_hit 472471
Core_0_L2C_total_miss 888600
Core_0_L2C_loads 1357451
Core_0_L2C_load_hit 469247
Core_0_L2C_load_miss 888204
Core_0_L2C_RFOs 396
Core_0_L2C_RFO_hit 0
Core_0_L2C_RFO_miss 396
Core_0_L2C_prefetches 0
Core_0_L2C_prefetch_hit 0
Core_0_L2C_prefetch_miss 0
Core_0_L2C_writebacks 3224
Core_0_L2C_writeback_hit 3224
Core_0_L2C_writeback_miss 0
Core_0_L2C_prefetch_requested 0
Core_0_L2C_prefetch_dropped 0
Core_0_L2C_prefetch_issued 0
Core_0_L2C_prefetch_filled 0
Core_0_L2C_prefetch_useful 0
Core_0_L2C_prefetch_useless 0
Core_0_L2C_prefetch_late 0
Core_0_L2C_average_miss_latency 106.82878

Core_0_L2C_rq_access 1357847
Core_0_L2C_rq_forward 0
Core_0_L2C_rq_merged 0
Core_0_L2C_rq_to_cache 1357847
Core_0_L2C_rq_full 0

Core_0_L2C_wq_access 3224
Core_0_L2C_wq_forward 0
Core_0_L2C_wq_merged 0
Core_0_L2C_wq_to_cache 3224
Core_0_L2C_wq_full 0

Core_0_L2C_pq_access 0
Core_0_L2C_pq_forward 0
Core_0_L2C_pq_merged 0
Core_0_L2C_pq_to_cache 0
Core_0_L2C_pq_full 0

Core_0_L2C_acc_epochs 210474
Core_0_L2C_acc_level_0 210474
Core_0_L2C_acc_level_1 0
Core_0_L2C_acc_level_2 0
Core_0_L2C_acc_level_3 0
Core_0_L2C_acc_level_4 0
Core_0_L2C_acc_level_5 0
Core_0_L2C_acc_level_6 0
Core_0_L2C_acc_level_7 0
Core_0_L2C_acc_level_8 0
Core_0_L2C_acc_level_9 0

Core_0_LLC_total_access 889865
Core_0_LLC_total_hit 312
Core_0_LLC_total_miss 889553
Core_0_LLC_loads 888204
Core_0_LLC_load_hit 241
Core_0_LLC_load_miss 887963
Core_0_LLC_RFOs 396
Core_0_LLC_RFO_hit 0
Core_0_LLC_RFO_miss 396
Core_0_LLC_prefetches 0
Core_0_LLC_prefetch_hit 0
Core_0_LLC_prefetch_miss 0
Core_0_LLC_writebacks 1265
Core_0_LLC_writeback_hit 71
Core_0_LLC_writeback_miss 1194
Core_0_LLC_prefetch_requested 0
Core_0_LLC_prefetch_dropped 0
Core_0_LLC_prefetch_issued 0
Core_0_LLC_prefetch_filled 0
Core_0_LLC_prefetch_useful 0
Core_0_LLC_prefetch_useless 0
Core_0_LLC_prefetch_late 0
Core_0_LLC_average_miss_latency 76.74170

Core_0_LLC_rq_access 888600
Core_0_LLC_rq_forward 0
Core_0_LLC_rq_merged 0
Core_0_LLC_rq_to_cache 888600
Core_0_LLC_rq_full 0

Core_0_LLC_wq_access 1265
Core_0_LLC_wq_forward 0
Core_0_LLC_wq_merged 0
Core_0_LLC_wq_to_cache 1265
Core_0_LLC_wq_full 0

Core_0_LLC_pq_access 0
Core_0_LLC_pq_forward 0
Core_0_LLC_pq_merged 0
Core_0_LLC_pq_to_cache 0
Core_0_LLC_pq_full 0

Core_0_LLC_acc_epochs 211946
Core_0_LLC_acc_level_0 211946
Core_0_LLC_acc_level_1 0
Core_0_LLC_acc_level_2 0
Core_0_LLC_acc_level_3 0
Core_0_LLC_acc_level_4 0
Core_0_LLC_acc_level_5 0
Core_0_LLC_acc_level_6 0
Core_0_LLC_acc_level_7 0
Core_0_LLC_acc_level_8 0
Core_0_LLC_acc_level_9 0

Core_0_major_page_fault 0
Core_0_minor_page_fault 18216

Channel_0_RQ_row_buffer_hit 838247
Channel_0_RQ_row_buffer_miss 50112
Channel_0_WQ_row_buffer_hit 5
Channel_0_WQ_row_buffer_miss 6
Channel_0_WQ_full 0
Channel_0_dbus_congested 3978

avg_congested_cycle 8

DRAM_bw_pochs 847781
DRAM_bw_level_0 847774
DRAM_bw_level_1 7
DRAM_bw_level_2 0
DRAM_bw_level_3 0
