*************************************************
   ChampSim Multicore Out-of-Order Simulator
   Last compiled: Apr  3 2025 20:54:34
*************************************************
parsing config file: /home/zir/Pythia/config/mlop.ini

trace_0 /home/zir/ChampSim/ML-DPC/ChampSimTraces/spec06/450.soplex-s0.trace.gz
adding L2C_PREFETCHER: MLOP
Initialize SHIP state
warmup_instructions 10000000
simulation_instructions 50000000
champsim_seed 163
measure_ipc 0
measure_ipc_epoch 1000
measure_dram_bw 1
measure_dram_bw_epoch 256
measure_cache_acc 1
measure_cache_acc_epoch 1024
l1d_perfect 0
l2c_perfect 0
llc_perfect 0
l1d_semi_perfect 0
l2c_semi_perfect 0
llc_semi_perfect 0
semi_perfect_cache_page_buffer_size 64

num_cpus 1
cpu_freq 4000
dram_io_freq 2400
page_size 4096
block_size 64
max_read_per_cycle 8
max_fill_per_cycle 1
dram_channels 1
log2_dram_channels 0
dram_ranks 1
dram_banks 8
dram_rows 65536
dram_columns 128
dram_row_size 8
dram_size 4096
dram_pages 1048576

fetch_width 6
decode_width 6
exec_width 4
lq_width 2
sq_width 2
retire_width 4
scheduler_size 128
branch_mispredict_penalty 20
rob_size 256
lq_size 72
sq_size 56
num_instr_destinations_sparc 4
num_instr_destinations 2
num_instr_sources 4

itlb_set 16
itlb_way 8
itlb_rq_size 16
itlb_wq_size 16
itlb_pq_size 0
itlb_mshr_size 8
itlb_latency 1

dtlb_set 16
dtlb_way 4
dtlb_rq_size 16
dtlb_wq_size 16
dtlb_pq_size 0
dtlb_mshr_size 8
dtlb_latency 1

stlb_set 128
stlb_way 12
stlb_rq_size 32
stlb_wq_size 32
stlb_pq_size 0
stlb_mshr_size 16
stlb_latency 8

l1i_size 32
l1i_set 64
l1i_way 8
l1i_rq_size 64
l1i_wq_size 64
l1i_pq_size 8
l1i_mshr_size 8
l1i_latency 1

l1d_size 32
l1d_set 64
l1d_way 8
l1d_rq_size 64
l1d_wq_size 64
l1d_pq_size 8
l1d_mshr_size 16
l1d_latency 4

l2c_size 256
l2c_set 512
l2c_way 8
l2c_rq_size 32
l2c_wq_size 32
l2c_pq_size 32
l2c_mshr_size 32
l2c_latency 10

llc_size 2048
llc_set 2048
llc_way 16
llc_rq_size 32
llc_wq_size 32
llc_pq_size 32
llc_mshr_size 64
llc_latency 20

dram_channel_width 8
dram_wq_size 64
dram_rq_size 64
tRP 15
tRCD 15
tCAS 12.5
dram_dbus_turn_around_time 30
dram_write_high_wm 56
dram_write_low_wm 48
min_dram_writes_per_switch 16
dram_mtps 2400
dram_dbus_return_time 13

mlop_pref_degree 16
mlop_num_updates 500
mlop_l1d_thresh 2
mlop_l2c_thresh 0.75
mlop_llc_thresh 0.3
mlop_debug_level 0
mlop_blocks_in_cache 4096
mlop_blocks_in_zone 64
mlop_amt_size 2048
mlop_PF_DEGREE 16
mlop_NUM_UPDATES 500
mlop_L1D_THRESH 1000
mlop_L2C_THRESH 375
mlop_LLC_THRESH 150
mlop_ORIGIN 63
mlop_MAX_OFFSET 63
mlop_MIN_OFFSET -63
mlop_ORIGIN 63
mlop_NUM_OFFSETS 127


Heartbeat CPU  0 instructions:    1000000 cycles:     542548 heartbeat IPC: 1.84315 cumulative IPC: 1.84315 (Simulation time: 0 hr 0 min 1 sec) 
Heartbeat CPU  0 instructions:    2000001 cycles:    1121887 heartbeat IPC: 1.72611 cumulative IPC: 1.78271 (Simulation time: 0 hr 0 min 2 sec) 
Heartbeat CPU  0 instructions:    3000000 cycles:    1850340 heartbeat IPC: 1.37277 cumulative IPC: 1.62132 (Simulation time: 0 hr 0 min 4 sec) 
Heartbeat CPU  0 instructions:    4000000 cycles:    2432105 heartbeat IPC: 1.71891 cumulative IPC: 1.64467 (Simulation time: 0 hr 0 min 5 sec) 
Heartbeat CPU  0 instructions:    5000001 cycles:    2978447 heartbeat IPC: 1.83036 cumulative IPC: 1.67873 (Simulation time: 0 hr 0 min 7 sec) 
Heartbeat CPU  0 instructions:    6000003 cycles:    3601001 heartbeat IPC: 1.60629 cumulative IPC: 1.66620 (Simulation time: 0 hr 0 min 8 sec) 
Heartbeat CPU  0 instructions:    7000000 cycles:    4238568 heartbeat IPC: 1.56846 cumulative IPC: 1.65150 (Simulation time: 0 hr 0 min 9 sec) 
Heartbeat CPU  0 instructions:    8000000 cycles:    4808220 heartbeat IPC: 1.75546 cumulative IPC: 1.66382 (Simulation time: 0 hr 0 min 10 sec) 
Heartbeat CPU  0 instructions:    9000001 cycles:    5438392 heartbeat IPC: 1.58687 cumulative IPC: 1.65490 (Simulation time: 0 hr 0 min 11 sec) 
Heartbeat CPU  0 instructions:   10000000 cycles:    6069699 heartbeat IPC: 1.58401 cumulative IPC: 1.64753 (Simulation time: 0 hr 0 min 13 sec) 

Warmup complete CPU  0 instructions:   10000004 cycles:    6069701 (Simulation time: 0 hr 0 min 13 sec) 

Heartbeat CPU  0 instructions:   11000001 cycles:    8889585 heartbeat IPC: 0.35462 cumulative IPC: 0.35462 (Simulation time: 0 hr 0 min 15 sec) 
Heartbeat CPU  0 instructions:   12000000 cycles:   11753410 heartbeat IPC: 0.34918 cumulative IPC: 0.35188 (Simulation time: 0 hr 0 min 18 sec) 
Heartbeat CPU  0 instructions:   13000000 cycles:   16646983 heartbeat IPC: 0.20435 cumulative IPC: 0.28363 (Simulation time: 0 hr 0 min 21 sec) 
Heartbeat CPU  0 instructions:   14000003 cycles:   18634828 heartbeat IPC: 0.50306 cumulative IPC: 0.31834 (Simulation time: 0 hr 0 min 22 sec) 
Heartbeat CPU  0 instructions:   15000000 cycles:   20625143 heartbeat IPC: 0.50243 cumulative IPC: 0.34351 (Simulation time: 0 hr 0 min 24 sec) 
Heartbeat CPU  0 instructions:   16000000 cycles:   24044907 heartbeat IPC: 0.29242 cumulative IPC: 0.33379 (Simulation time: 0 hr 0 min 27 sec) 
Heartbeat CPU  0 instructions:   17000001 cycles:   27816636 heartbeat IPC: 0.26513 cumulative IPC: 0.32188 (Simulation time: 0 hr 0 min 30 sec) 
Heartbeat CPU  0 instructions:   18000000 cycles:   34668131 heartbeat IPC: 0.14595 cumulative IPC: 0.27974 (Simulation time: 0 hr 0 min 33 sec) 
Heartbeat CPU  0 instructions:   19000001 cycles:   39182533 heartbeat IPC: 0.22151 cumulative IPC: 0.27180 (Simulation time: 0 hr 0 min 36 sec) 
Heartbeat CPU  0 instructions:   20000000 cycles:   42415040 heartbeat IPC: 0.30936 cumulative IPC: 0.27514 (Simulation time: 0 hr 0 min 40 sec) 
Heartbeat CPU  0 instructions:   21000001 cycles:   47483907 heartbeat IPC: 0.19728 cumulative IPC: 0.26561 (Simulation time: 0 hr 0 min 43 sec) 
Heartbeat CPU  0 instructions:   22000003 cycles:   51943301 heartbeat IPC: 0.22425 cumulative IPC: 0.26159 (Simulation time: 0 hr 0 min 46 sec) 
Heartbeat CPU  0 instructions:   23000002 cycles:   55519302 heartbeat IPC: 0.27964 cumulative IPC: 0.26289 (Simulation time: 0 hr 0 min 49 sec) 
Heartbeat CPU  0 instructions:   24000000 cycles:   59929718 heartbeat IPC: 0.22674 cumulative IPC: 0.25993 (Simulation time: 0 hr 0 min 52 sec) 
Heartbeat CPU  0 instructions:   25000002 cycles:   64261840 heartbeat IPC: 0.23083 cumulative IPC: 0.25777 (Simulation time: 0 hr 0 min 54 sec) 
Heartbeat CPU  0 instructions:   26000002 cycles:   68160517 heartbeat IPC: 0.25650 cumulative IPC: 0.25769 (Simulation time: 0 hr 0 min 56 sec) 
Heartbeat CPU  0 instructions:   27000000 cycles:   71247479 heartbeat IPC: 0.32394 cumulative IPC: 0.26083 (Simulation time: 0 hr 0 min 58 sec) 
Heartbeat CPU  0 instructions:   28000000 cycles:   75074730 heartbeat IPC: 0.26128 cumulative IPC: 0.26085 (Simulation time: 0 hr 1 min 1 sec) 
Heartbeat CPU  0 instructions:   29000002 cycles:   77428158 heartbeat IPC: 0.42491 cumulative IPC: 0.26626 (Simulation time: 0 hr 1 min 3 sec) 
Heartbeat CPU  0 instructions:   30000003 cycles:   78744527 heartbeat IPC: 0.75967 cumulative IPC: 0.27520 (Simulation time: 0 hr 1 min 5 sec) 
Heartbeat CPU  0 instructions:   31000003 cycles:   81775165 heartbeat IPC: 0.32996 cumulative IPC: 0.27739 (Simulation time: 0 hr 1 min 7 sec) 
Heartbeat CPU  0 instructions:   32000000 cycles:   85452824 heartbeat IPC: 0.27191 cumulative IPC: 0.27714 (Simulation time: 0 hr 1 min 10 sec) 
Heartbeat CPU  0 instructions:   33000000 cycles:   89126735 heartbeat IPC: 0.27219 cumulative IPC: 0.27692 (Simulation time: 0 hr 1 min 12 sec) 
Heartbeat CPU  0 instructions:   34000002 cycles:   90896601 heartbeat IPC: 0.56502 cumulative IPC: 0.28293 (Simulation time: 0 hr 1 min 15 sec) 
Heartbeat CPU  0 instructions:   35000003 cycles:   93832634 heartbeat IPC: 0.34060 cumulative IPC: 0.28486 (Simulation time: 0 hr 1 min 17 sec) 
Heartbeat CPU  0 instructions:   36000000 cycles:   96862899 heartbeat IPC: 0.33000 cumulative IPC: 0.28637 (Simulation time: 0 hr 1 min 19 sec) 
Heartbeat CPU  0 instructions:   37000000 cycles:  101587449 heartbeat IPC: 0.21166 cumulative IPC: 0.28267 (Simulation time: 0 hr 1 min 23 sec) 
Heartbeat CPU  0 instructions:   38000002 cycles:  103561834 heartbeat IPC: 0.50649 cumulative IPC: 0.28720 (Simulation time: 0 hr 1 min 24 sec) 
Heartbeat CPU  0 instructions:   39000003 cycles:  105758209 heartbeat IPC: 0.45530 cumulative IPC: 0.29091 (Simulation time: 0 hr 1 min 26 sec) 
Heartbeat CPU  0 instructions:   40000000 cycles:  109205992 heartbeat IPC: 0.29004 cumulative IPC: 0.29088 (Simulation time: 0 hr 1 min 28 sec) 
Heartbeat CPU  0 instructions:   41000000 cycles:  112588824 heartbeat IPC: 0.29561 cumulative IPC: 0.29103 (Simulation time: 0 hr 1 min 31 sec) 
Heartbeat CPU  0 instructions:   42000001 cycles:  114546706 heartbeat IPC: 0.51076 cumulative IPC: 0.29499 (Simulation time: 0 hr 1 min 33 sec) 
Heartbeat CPU  0 instructions:   43000000 cycles:  119027469 heartbeat IPC: 0.22318 cumulative IPC: 0.29214 (Simulation time: 0 hr 1 min 36 sec) 
Heartbeat CPU  0 instructions:   44000000 cycles:  122472723 heartbeat IPC: 0.29025 cumulative IPC: 0.29209 (Simulation time: 0 hr 1 min 39 sec) 
Heartbeat CPU  0 instructions:   45000001 cycles:  124217025 heartbeat IPC: 0.57330 cumulative IPC: 0.29624 (Simulation time: 0 hr 1 min 40 sec) 
Heartbeat CPU  0 instructions:   46000002 cycles:  127329151 heartbeat IPC: 0.32132 cumulative IPC: 0.29688 (Simulation time: 0 hr 1 min 42 sec) 
Heartbeat CPU  0 instructions:   47000001 cycles:  130706692 heartbeat IPC: 0.29607 cumulative IPC: 0.29686 (Simulation time: 0 hr 1 min 45 sec) 
Heartbeat CPU  0 instructions:   48000000 cycles:  133868180 heartbeat IPC: 0.31631 cumulative IPC: 0.29734 (Simulation time: 0 hr 1 min 48 sec) 
Heartbeat CPU  0 instructions:   49000001 cycles:  136101267 heartbeat IPC: 0.44781 cumulative IPC: 0.29993 (Simulation time: 0 hr 1 min 50 sec) 
Heartbeat CPU  0 instructions:   50000003 cycles:  140588851 heartbeat IPC: 0.22284 cumulative IPC: 0.29736 (Simulation time: 0 hr 1 min 53 sec) 
Heartbeat CPU  0 instructions:   51000003 cycles:  144224196 heartbeat IPC: 0.27508 cumulative IPC: 0.29677 (Simulation time: 0 hr 1 min 56 sec) 
Heartbeat CPU  0 instructions:   52000000 cycles:  146029900 heartbeat IPC: 0.55380 cumulative IPC: 0.30009 (Simulation time: 0 hr 1 min 57 sec) 
Heartbeat CPU  0 instructions:   53000001 cycles:  149164459 heartbeat IPC: 0.31902 cumulative IPC: 0.30050 (Simulation time: 0 hr 1 min 59 sec) 
Heartbeat CPU  0 instructions:   54000001 cycles:  152601562 heartbeat IPC: 0.29094 cumulative IPC: 0.30028 (Simulation time: 0 hr 2 min 2 sec) 
Heartbeat CPU  0 instructions:   55000002 cycles:  156024587 heartbeat IPC: 0.29214 cumulative IPC: 0.30009 (Simulation time: 0 hr 2 min 5 sec) 
Heartbeat CPU  0 instructions:   56000000 cycles:  158098604 heartbeat IPC: 0.48216 cumulative IPC: 0.30257 (Simulation time: 0 hr 2 min 7 sec) 
Heartbeat CPU  0 instructions:   57000001 cycles:  162749192 heartbeat IPC: 0.21503 cumulative IPC: 0.29998 (Simulation time: 0 hr 2 min 10 sec) 
Heartbeat CPU  0 instructions:   58000000 cycles:  166211873 heartbeat IPC: 0.28879 cumulative IPC: 0.29973 (Simulation time: 0 hr 2 min 13 sec) 
Heartbeat CPU  0 instructions:   59000001 cycles:  167973911 heartbeat IPC: 0.56753 cumulative IPC: 0.30265 (Simulation time: 0 hr 2 min 14 sec) 
Heartbeat CPU  0 instructions:   60000000 cycles:  171128778 heartbeat IPC: 0.31697 cumulative IPC: 0.30292 (Simulation time: 0 hr 2 min 16 sec) 
Finished CPU 0 instructions: 50000001 cycles: 165059087 cumulative IPC: 0.30292 (Simulation time: 0 hr 2 min 16 sec) 

ChampSim completed all CPUs

[ROI Statistics]
Core_0_instructions 50000001
Core_0_cycles 165059087
Core_0_IPC 0.30292

Core_0_branch_prediction_accuracy 95.76323
Core_0_branch_MPKI 8.42440
Core_0_average_ROB_occupancy_at_mispredict 83.10407

Core_0_L1D_total_access 10652559
Core_0_L1D_total_hit 7639882
Core_0_L1D_total_miss 3012677
Core_0_L1D_loads 7148884
Core_0_L1D_load_hit 4666154
Core_0_L1D_load_miss 2482730
Core_0_L1D_RFOs 3503675
Core_0_L1D_RFO_hit 2973728
Core_0_L1D_RFO_miss 529947
Core_0_L1D_prefetches 0
Core_0_L1D_prefetch_hit 0
Core_0_L1D_prefetch_miss 0
Core_0_L1D_writebacks 0
Core_0_L1D_writeback_hit 0
Core_0_L1D_writeback_miss 0
Core_0_L1D_prefetch_requested 0
Core_0_L1D_prefetch_dropped 0
Core_0_L1D_prefetch_issued 0
Core_0_L1D_prefetch_filled 0
Core_0_L1D_prefetch_useful 0
Core_0_L1D_prefetch_useless 0
Core_0_L1D_prefetch_late 0
Core_0_L1D_average_miss_latency 139.98739

Core_0_L1D_rq_access 12481480
Core_0_L1D_rq_forward 0
Core_0_L1D_rq_merged 4573818
Core_0_L1D_rq_to_cache 7907648
Core_0_L1D_rq_full 0

Core_0_L1D_wq_access 4627497
Core_0_L1D_wq_forward 14
Core_0_L1D_wq_merged 17384
Core_0_L1D_wq_to_cache 4610113
Core_0_L1D_wq_full 1855155

Core_0_L1D_pq_access 0
Core_0_L1D_pq_forward 0
Core_0_L1D_pq_merged 0
Core_0_L1D_pq_to_cache 0
Core_0_L1D_pq_full 0

Core_0_L1D_acc_epochs 159931
Core_0_L1D_acc_level_0 159931
Core_0_L1D_acc_level_1 0
Core_0_L1D_acc_level_2 0
Core_0_L1D_acc_level_3 0
Core_0_L1D_acc_level_4 0
Core_0_L1D_acc_level_5 0
Core_0_L1D_acc_level_6 0
Core_0_L1D_acc_level_7 0
Core_0_L1D_acc_level_8 0
Core_0_L1D_acc_level_9 0

Core_0_L1I_total_access 11139900
Core_0_L1I_total_hit 11139189
Core_0_L1I_total_miss 711
Core_0_L1I_loads 11139900
Core_0_L1I_load_hit 11139189
Core_0_L1I_load_miss 711
Core_0_L1I_RFOs 0
Core_0_L1I_RFO_hit 0
Core_0_L1I_RFO_miss 0
Core_0_L1I_prefetches 0
Core_0_L1I_prefetch_hit 0
Core_0_L1I_prefetch_miss 0
Core_0_L1I_writebacks 0
Core_0_L1I_writeback_hit 0
Core_0_L1I_writeback_miss 0
Core_0_L1I_prefetch_requested 0
Core_0_L1I_prefetch_dropped 0
Core_0_L1I_prefetch_issued 0
Core_0_L1I_prefetch_filled 0
Core_0_L1I_prefetch_useful 0
Core_0_L1I_prefetch_useless 0
Core_0_L1I_prefetch_late 0
Core_0_L1I_average_miss_latency 225.68495

Core_0_L1I_rq_access 50000000
Core_0_L1I_rq_forward 0
Core_0_L1I_rq_merged 38859566
Core_0_L1I_rq_to_cache 11140434
Core_0_L1I_rq_full 0

Core_0_L1I_wq_access 0
Core_0_L1I_wq_forward 0
Core_0_L1I_wq_merged 0
Core_0_L1I_wq_to_cache 0
Core_0_L1I_wq_full 0

Core_0_L1I_pq_access 0
Core_0_L1I_pq_forward 0
Core_0_L1I_pq_merged 0
Core_0_L1I_pq_to_cache 0
Core_0_L1I_pq_full 0

Core_0_L1I_acc_epochs 159931
Core_0_L1I_acc_level_0 159931
Core_0_L1I_acc_level_1 0
Core_0_L1I_acc_level_2 0
Core_0_L1I_acc_level_3 0
Core_0_L1I_acc_level_4 0
Core_0_L1I_acc_level_5 0
Core_0_L1I_acc_level_6 0
Core_0_L1I_acc_level_7 0
Core_0_L1I_acc_level_8 0
Core_0_L1I_acc_level_9 0

Core_0_L2C_total_access 4805926
Core_0_L2C_total_hit 2243898
Core_0_L2C_total_miss 2562028
Core_0_L2C_loads 2483289
Core_0_L2C_load_hit 762170
Core_0_L2C_load_miss 1721119
Core_0_L2C_RFOs 529893
Core_0_L2C_RFO_hit 72187
Core_0_L2C_RFO_miss 457706
Core_0_L2C_prefetches 386293
Core_0_L2C_prefetch_hit 3283
Core_0_L2C_prefetch_miss 383010
Core_0_L2C_writebacks 1406451
Core_0_L2C_writeback_hit 1406258
Core_0_L2C_writeback_miss 193
Core_0_L2C_prefetch_requested 2347288
Core_0_L2C_prefetch_dropped 0
Core_0_L2C_prefetch_issued 2347288
Core_0_L2C_prefetch_filled 487523
Core_0_L2C_prefetch_useful 337841
Core_0_L2C_prefetch_useless 149459
Core_0_L2C_prefetch_late 47700
Core_0_L2C_average_miss_latency 179.19940

Core_0_L2C_rq_access 3013388
Core_0_L2C_rq_forward 0
Core_0_L2C_rq_merged 0
Core_0_L2C_rq_to_cache 3013182
Core_0_L2C_rq_full 0

Core_0_L2C_wq_access 1406451
Core_0_L2C_wq_forward 207
Core_0_L2C_wq_merged 0
Core_0_L2C_wq_to_cache 1406451
Core_0_L2C_wq_full 0

Core_0_L2C_pq_access 2347288
Core_0_L2C_pq_forward 0
Core_0_L2C_pq_merged 24183
Core_0_L2C_pq_to_cache 2323104
Core_0_L2C_pq_full 0

Core_0_L2C_acc_epochs 159931
Core_0_L2C_acc_level_0 104693
Core_0_L2C_acc_level_1 4496
Core_0_L2C_acc_level_2 4609
Core_0_L2C_acc_level_3 4775
Core_0_L2C_acc_level_4 5082
Core_0_L2C_acc_level_5 6921
Core_0_L2C_acc_level_6 6290
Core_0_L2C_acc_level_7 5577
Core_0_L2C_acc_level_8 4448
Core_0_L2C_acc_level_9 13040

Core_0_LLC_total_access 4909817
Core_0_LLC_total_hit 2277140
Core_0_LLC_total_miss 2632677
Core_0_LLC_loads 1673867
Core_0_LLC_load_hit 999067
Core_0_LLC_load_miss 674800
Core_0_LLC_RFOs 457690
Core_0_LLC_RFO_hit 133275
Core_0_LLC_RFO_miss 324415
Core_0_LLC_prefetches 1702861
Core_0_LLC_prefetch_hit 319384
Core_0_LLC_prefetch_miss 1383477
Core_0_LLC_writebacks 1075399
Core_0_LLC_writeback_hit 825414
Core_0_LLC_writeback_miss 249985
Core_0_LLC_prefetch_requested 0
Core_0_LLC_prefetch_dropped 0
Core_0_LLC_prefetch_issued 0
Core_0_LLC_prefetch_filled 1754565
Core_0_LLC_prefetch_useful 548563
Core_0_LLC_prefetch_useless 1201641
Core_0_LLC_prefetch_late 34172
Core_0_LLC_average_miss_latency 298.03793

Core_0_LLC_rq_access 2131587
Core_0_LLC_rq_forward 0
Core_0_LLC_rq_merged 0
Core_0_LLC_rq_to_cache 2131557
Core_0_LLC_rq_full 0

Core_0_LLC_wq_access 1075401
Core_0_LLC_wq_forward 40
Core_0_LLC_wq_merged 0
Core_0_LLC_wq_to_cache 1075401
Core_0_LLC_wq_full 0

Core_0_LLC_pq_access 2216581
Core_0_LLC_pq_forward 0
Core_0_LLC_pq_merged 4339
Core_0_LLC_pq_to_cache 2212232
Core_0_LLC_pq_full 0

Core_0_LLC_acc_epochs 167118
Core_0_LLC_acc_level_0 76285
Core_0_LLC_acc_level_1 18851
Core_0_LLC_acc_level_2 15220
Core_0_LLC_acc_level_3 11776
Core_0_LLC_acc_level_4 9109
Core_0_LLC_acc_level_5 8076
Core_0_LLC_acc_level_6 5254
Core_0_LLC_acc_level_7 3827
Core_0_LLC_acc_level_8 2925
Core_0_LLC_acc_level_9 15795

Core_0_major_page_fault 0
Core_0_minor_page_fault 13149

[MLOP] History of tracked zone:
IIIIIIIIIIIIIIIIIIIIIIIIIIIIIIIIIIIIIIIIIIIIIIIIIIIIIIIIIIIIIIII
A2222222222222222IIIIIIIIIIIIIIIIIIIIIIIIIIIIIIIIIIIIIIIIIIIIIII
AA2222222222222222IIIIIIIIIIIIIIIIIIIIIIIIIIIIIIIIIIIIIIIIIIIIII
AAA2222222222222222IIIIIIIIIIIIIIIIIIIIIIIIIIIIIIIIIIIIIIIIIIIII
AAAA2222222222222222IIIIIIIIIIIIIIIIIIIIIIIIIIIIIIIIIIIIIIIIIIII
AAAAA2222222222222222IIIIIIIIIIIIIIIIIIIIIIIIIIIIIIIIIIIIIIIIIII
AAAAAA2222222222222222IIIIIIIIIIIIIIIIIIIIIIIIIIIIIIIIIIIIIIIIII
AAAAAAA2222222222222222IIIIIIIIIIIIIIIIIIIIIIIIIIIIIIIIIIIIIIIII
AAAAAAAA2222222222222222IIIIIIIIIIIIIIIIIIIIIIIIIIIIIIIIIIIIIIII
AAAAAAAAA2222222222222222IIIIIIIIIIIIIIIIIIIIIIIIIIIIIIIIIIIIIII
AAAAAAAAAA2222222222222222IIIIIIIIIIIIIIIIIIIIIIIIIIIIIIIIIIIIII
AAAAAAAAAAA2222222222222222IIIIIIIIIIIIIIIIIIIIIIIIIIIIIIIIIIIII
AAAAAAAAAAAA2222222222222222IIIIIIIIIIIIIIIIIIIIIIIIIIIIIIIIIIII
AAAAAAAAAAAAA2222222222222222IIIIIIIIIIIIIIIIIIIIIIIIIIIIIIIIIII
AAAAAAAAAAAAAA2222222222222222IIIIIIIIIIIIIIIIIIIIIIIIIIIIIIIIII
AAAAAAAAAAAAAAA2222222222222222IIIIIIIIIIIIIIIIIIIIIIIIIIIIIIIII
AAAAAAAAAAAAAAAA2222222222222222IIIIIIIIIIIIIIIIIIIIIIIIIIIIIIII
AAAAAAAAAAAAAAAAA2222222222222222IIIIIIIIIIIIIIIIIIIIIIIIIIIIIII
AAAAAAAAAAAAAAAAAA2222222222222222IIIIIIIIIIIIIIIIIIIIIIIIIIIIII
AAAAAAAAAAAAAAAAAAA2222222222222222IIIIIIIIIIIIIIIIIIIIIIIIIIIII
AAAAAAAAAAAAAAAAAAAA2222222222222222IIIIIIIIIIIIIIIIIIIIIIIIIIII
AAAAAAAAAAAAAAAAAAAAA2222222222222222IIIIIIIIIIIIIIIIIIIIIIIIIII
AAAAAAAAAAAAAAAAAAAAAA2222222222222222IIIIIIIIIIIIIIIIIIIIIIIIII
AAAAAAAAAAAAAAAAAAAAAAA2222222222222222IIIIIIIIIIIIIIIIIIIIIIIII
AAAAAAAAAAAAAAAAAAAAAAAA2222222222222222IIIIIIIIIIIIIIIIIIIIIIII
AAAAAAAAAAAAAAAAAAAAAAAAA2222222222222222IIIIIIIIIIIIIIIIIIIIIII
AAAAAAAAAAAAAAAAAAAAAAAAAA2222222222222222IIIIIIIIIIIIIIIIIIIIII
AAAAAAAAAAAAAAAAAAAAAAAAAAA2222222222222222IIIIIIIIIIIIIIIIIIIII
AAAAAAAAAAAAAAAAAAAAAAAAAAAA2222222222222222IIIIIIIIIIIIIIIIIIII
AAAAAAAAAAAAAAAAAAAAAAAAAAAAA2222222222222222IIIIIIIIIIIIIIIIIII
AAAAAAAAAAAAAAAAAAAAAAAAAAAAAA2222222222222222IIIIIIIIIIIIIIIIII
AAAAAAAAAAAAAAAAAAAAAAAAAAAAAAA2222222222222222IIIIIIIIIIIIIIIII
AAAAAAAAAAAAAAAAAAAAAAAAAAAAAAAA2222222222222222IIIIIIIIIIIIIIII
AAAAAAAAAAAAAAAAAAAAAAAAAAAAAAAAA2222222222222222IIIIIIIIIIIIIII
AAAAAAAAAAAAAAAAAAAAAAAAAAAAAAAAAA2222222222222222IIIIIIIIIIIIII
AAAAAAAAAAAAAAAAAAAAAAAAAAAAAAAAAAA2222222222222222IIIIIIIIIIIII
AAAAAAAAAAAAAAAAAAAAAAAAAAAAAAAAAAAA2222222222222222IIIIIIIIIIII
AAAAAAAAAAAAAAAAAAAAAAAAAAAAAAAAAAAAA2222222222222222IIIIIIIIIII
AAAAAAAAAAAAAAAAAAAAAAAAAAAAAAAAAAAAAA2222222222222222IIIIIIIIII
AAAAAAAAAAAAAAAAAAAAAAAAAAAAAAAAAAAAAAA2222222222222222IIIIIIIII
AAAAAAAAAAAAAAAAAAAAAAAAAAAAAAAAAAAAAAAA2222222222222222IIIIIIII
AAAAAAAAAAAAAAAAAAAAAAAAAAAAAAAAAAAAAAAAA2222222222222222IIIIIII
AAAAAAAAAAAAAAAAAAAAAAAAAAAAAAAAAAAAAAAAAA2222222222222222IIIIII
AAAAAAAAAAAAAAAAAAAAAAAAAAAAAAAAAAAAAAAAAAA2222222222222222IIIII
AAAAAAAAAAAAAAAAAAAAAAAAAAAAAAAAAAAAAAAAAAAA2222222222222222IIII
AAAAAAAAAAAAAAAAAAAAAAAAAAAAAAAAAAAAAAAAAAAAA2222222222222222III
AAAAAAAAAAAAAAAAAAAAAAAAAAAAAAAAAAAAAAAAAAAAAA2222222222222222II
AAAAAAAAAAAAAAAAAAAAAAAAAAAAAAAAAAAAAAAAAAAAAAA2222222222222222I
AAAAAAAAAAAAAAAAAAAAAAAAAAAAAAAAAAAAAAAAAAAAAAAA2222222222222222
AAAAAAAAAAAAAAAAAAAAAAAAAAAAAAAAAAAAAAAAAAAAAAAAA222222222222222
AAAAAAAAAAAAAAAAAAAAAAAAAAAAAAAAAAAAAAAAAAAAAAAAAA22222222222222
AAAAAAAAAAAAAAAAAAAAAAAAAAAAAAAAAAAAAAAAAAAAAAAAAAA2222222222222
AAAAAAAAAAAAAAAAAAAAAAAAAAAAAAAAAAAAAAAAAAAAAAAAAAAA222222222222
AAAAAAAAAAAAAAAAAAAAAAAAAAAAAAAAAAAAAAAAAAAAAAAAAAAAA22222222222
AAAAAAAAAAAAAAAAAAAAAAAAAAAAAAAAAAAAAAAAAAAAAAAAAAAAAA2222222222
AAAAAAAAAAAAAAAAAAAAAAAAAAAAAAAAAAAAAAAAAAAAAAAAAAAAAAA222222222
AAAAAAAAAAAAAAAAAAAAAAAAAAAAAAAAAAAAAAAAAAAAAAAAAAAAAAAA22222222
AAAAAAAAAAAAAAAAAAAAAAAAAAAAAAAAAAAAAAAAAAAAAAAAAAAAAAAAA2222222
AAAAAAAAAAAAAAAAAAAAAAAAAAAAAAAAAAAAAAAAAAAAAAAAAAAAAAAAAA222222
AAAAAAAAAAAAAAAAAAAAAAAAAAAAAAAAAAAAAAAAAAAAAAAAAAAAAAAAAAA22222
AAAAAAAAAAAAAAAAAAAAAAAAAAAAAAAAAAAAAAAAAAAAAAAAAAAAAAAAAAAA2222
AAAAAAAAAAAAAAAAAAAAAAAAAAAAAAAAAAAAAAAAAAAAAAAAAAAAAAAAAAAAA222
AAAAAAAAAAAAAAAAAAAAAAAAAAAAAAAAAAAAAAAAAAAAAAAAAAAAAAAAAAAAAA22
AAAAAAAAAAAAAAAAAAAAAAAAAAAAAAAAAAAAAAAAAAAAAAAAAAAAAAAAAAAAAAA2
AAAAAAAAAAAAAAAAAAAAAAAAAAAAAAAAAAAAAAAAAAAAAAAAAAAAAAAAAAAAAAAA
AIAAAAAAAAAAAAAAAAAAAAAAAAAAAAAAAAAAAAAAAAAAAAAAAAAAAAAAAAAAAAAA
AIIAAAAAAAAAAAAAAAAAAAAAAAAAAAAAAAAAAAAAAAAAAAAAAAAAAAAAAAAAAAAA
AIIIAAAAAAAAAAAAAAAAAAAAAAAAAAAAAAAAAAAAAAAAAAAAAAAAAAAAAAAAAAAA
AIIIIAAAAAAAAAAAAAAAAAAAAAAAAAAAAAAAAAAAAAAAAAAAAAAAAAAAAAAAAAAA
AIIIIIAAAAAAAAAAAAAAAAAAAAAAAAAAAAAAAAAAAAAAAAAAAAAAAAAAAAAAAAAA
AIIIIIIAAAAAAAAAAAAAAAAAAAAAAAAAAAAAAAAAAAAAAAAAAAAAAAAAAAAAAAAA
AIIIIIIIAAAAAAAAAAAAAAAAAAAAAAAAAAAAAAAAAAAAAAAAAAAAAAAAAAAAAAAA
AIIIIIIIIAAAAAAAAAAAAAAAAAAAAAAAAAAAAAAAAAAAAAAAAAAAAAAAAAAAAAAA
AIIIIIIIIIAAAAAAAAAAAAAAAAAAAAAAAAAAAAAAAAAAAAAAAAAAAAAAAAAAAAAA
AIIIIIIIIIIAAAAAAAAAAAAAAAAAAAAAAAAAAAAAAAAAAAAAAAAAAAAAAAAAAAAA
AIIIIIIIIIIIAAAAAAAAAAAAAAAAAAAAAAAAAAAAAAAAAAAAAAAAAAAAAAAAAAAA
AIIIIIIIIIIIIAAAAAAAAAAAAAAAAAAAAAAAAAAAAAAAAAAAAAAAAAAAAAAAAAAA
AIIIIIIIIIIIIIAAAAAAAAAAAAAAAAAAAAAAAAAAAAAAAAAAAAAAAAAAAAAAAAAA
AIIIIIIIIIIIIIIAAAAAAAAAAAAAAAAAAAAAAAAAAAAAAAAAAAAAAAAAAAAAAAAA
AIIIIIIIIIIIIIIIAAAAAAAAAAAAAAAAAAAAAAAAAAAAAAAAAAAAAAAAAAAAAAAA
AIIIIIIIIIIIIIIIIAAAAAAAAAAAAAAAAAAAAAAAAAAAAAAAAAAAAAAAAAAAAAAA
AIIIIIIIIIIIIIIIIIAAAAAAAAAAAAAAAAAAAAAAAAAAAAAAAAAAAAAAAAAAAAAA
AIIIIIIIIIIIIIIIIIIAAAAAAAAAAAAAAAAAAAAAAAAAAAAAAAAAAAAAAAAAAAAA
AIIIIIIIIIIIIIIIIIIIAAAAAAAAAAAAAAAAAAAAAAAAAAAAAAAAAAAAAAAAAAAA
AIIIIIIIIIIIIIIIIIIIIAAAAAAAAAAAAAAAAAAAAAAAAAAAAAAAAAAAAAAAAAAA
AIIIIIIIIIIIIIIIIIIIIIAAAAAAAAAAAAAAAAAAAAAAAAAAAAAAAAAAAAAAAAAA
AIIIIIIIIIIIIIIIIIIIIIIAAAAAAAAAAAAAAAAAAAAAAAAAAAAAAAAAAAAAAAAA
AIIIIIIIIIIIIIIIIIIIIIIIAAAAAAAAAAAAAAAAAAAAAAAAAAAAAAAAAAAAAAAA
AIIIIIIIIIIIIIIIIIIIIIIIIAAAAAAAAAAAAAAAAAAAAAAAAAAAAAAAAAAAAAAA
AIIIIIIIIIIIIIIIIIIIIIIIIIAAAAAAAAAAAAAAAAAAAAAAAAAAAAAAAAAAAAAA
AIIIIIIIIIIIIIIIIIIIIIIIIIIAAAAAAAAAAAAAAAAAAAAAAAAAAAAAAAAAAAAA
AIIIIIIIIIIIIIIIIIIIIIIIIIIIAAAAAAAAAAAAAAAAAAAAAAAAAAAAAAAAAAAA
AIIIIIIIIIIIIIIIIIIIIIIIIIIIIAAAAAAAAAAAAAAAAAAAAAAAAAAAAAAAAAAA
AIIIIIIIIIIIIIIIIIIIIIIIIIIIIIAAAAAAAAAAAAAAAAAAAAAAAAAAAAAAAAAA
AIIIIIIIIIIIIIIIIIIIIIIIIIIIIIIAAAAAAAAAAAAAAAAAAAAAAAAAAAAAAAAA
AIIIIIIIIIIIIIIIIIIIIIIIIIIIIIIIAAAAAAAAAAAAAAAAAAAAAAAAAAAAAAAA
AIIIIIIIIIIIIIIIIIIIIIIIIIIIIIIIIAAAAAAAAAAAAAAAAAAAAAAAAAAAAAAA
AIIIIIIIIIIIIIIIIIIIIIIIIIIIIIIIIIAAAAAAAAAAAAAAAAAAAAAAAAAAAAAA
AIIIIIIIIIIIIIIIIIIIIIIIIIIIIIIIIIIAAAAAAAAAAAAAAAAAAAAAAAAAAAAA
AIIIIIIIIIIIIIIIIIIIIIIIIIIIIIIIIIIIAAAAAAAAAAAAAAAAAAAAAAAAAAAA
AIIIIIIIIIIIIIIIIIIIIIIIIIIIIIIIIIIIIAAAAAAAAAAAAAAAAAAAAAAAAAAA
AIIIIIIIIIIIIIIIIIIIIIIIIIIIIIIIIIIIIIAAAAAAAAAAAAAAAAAAAAAAAAAA
AIIIIIIIIIIIIIIIIIIIIIIIIIIIIIIIIIIIIIIAAAAAAAAAAAAAAAAAAAAAAAAA
AIIIIIIIIIIIIIIIIIIIIIIIIIIIIIIIIIIIIIIIAAAAAAAAAAAAAAAAAAAAAAAA
AIIIIIIIIIIIIIIIIIIIIIIIIIIIIIIIIIIIIIIIIAAAAAAAAAAAAAAAAAAAAAAA
AIIIIIIIIIIIIIIIIIIIIIIIIIIIIIIIIIIIIIIIIIAAAAAAAAAAAAAAAAAAAAAA
AIIIIIIIIIIIIIIIIIIIIIIIIIIIIIIIIIIIIIIIIIIAAAAAAAAAAAAAAAAAAAAA
AIIIIIIIIIIIIIIIIIIIIIIIIIIIIIIIIIIIIIIIIIIIAAAAAAAAAAAAAAAAAAAA
AIIIIIIIIIIIIIIIIIIIIIIIIIIIIIIIIIIIIIIIIIIIIAAAAAAAAAAAAAAAAAAA
AIIIIIIIIIIIIIIIIIIIIIIIIIIIIIIIIIIIIIIIIIIIIIAAAAAAAAAAAAAAAAAA
AIIIIIIIIIIIIIIIIIIIIIIIIIIIIIIIIIIIIIIIIIIIIIIAAAAAAAAAAAAAAAAA
AIIIIIIIIIIIIIIIIIIIIIIIIIIIIIIIIIIIIIIIIIIIIIIIAAAAAAAAAAAAAAAA
AIIIIIIIIIIIIIIIIIIIIIIIIIIIIIIIIIIIIIIIIIIIIIIIIAAAAAAAAAAAAAAA
AIIIIIIIIIIIIIIIIIIIIIIIIIIIIIIIIIIIIIIIIIIIIIIIIIAAAAAAAAAAAAAA
AIIIIIIIIIIIIIIIIIIIIIIIIIIIIIIIIIIIIIIIIIIIIIIIIIIAAAAAAAAAAAAA
AIIIIIIIIIIIIIIIIIIIIIIIIIIIIIIIIIIIIIIIIIIIIIIIIIIIAAAAAAAAAAAA
AIIIIIIIIIIIIIIIIIIIIIIIIIIIIIIIIIIIIIIIIIIIIIIIIIIIIAAAAAAAAAAA
AIIIIIIIIIIIIIIIIIIIIIIIIIIIIIIIIIIIIIIIIIIIIIIIIIIIIIAAAAAAAAAA
AIIIIIIIIIIIIIIIIIIIIIIIIIIIIIIIIIIIIIIIIIIIIIIIIIIIIIIAAAAAAAAA
AIIIIIIIIIIIIIIIIIIIIIIIIIIIIIIIIIIIIIIIIIIIIIIIIIIIIIIIAAAAAAAA
AIIIIIIIIIIIIIIIIIIIIIIIIIIIIIIIIIIIIIIIIIIIIIIIIIIIIIIIIAAAAAAA
AIIIIIIIIIIIIIIIIIIIIIIIIIIIIIIIIIIIIIIIIIIIIIIIIIIIIIIIIIAAAAAA
AIIIIIIIIIIIIIIIIIIIIIIIIIIIIIIIIIIIIIIIIIIIIIIIIIIIIIIIIIIAAAAA
AIIIIIIIIIIIIIIIIIIIIIIIIIIIIIIIIIIIIIIIIIIIIIIIIIIIIIIIIIIIAAAA
AIIIIIIIIIIIIIIIIIIIIIIIIIIIIIIIIIIIIIIIIIIIIIIIIIIIIIIIIIIIIAAA
AIIIIIIIIIIIIIIIIIIIIIIIIIIIIIIIIIIIIIIIIIIIIIIIIIIIIIIIIIIIIIAA
AIIIIIIIIIIIIIIIIIIIIIIIIIIIIIIIIIIIIIIIIIIIIIIIIIIIIIIIIIIIIIIA
AIIIIIIIIIIIIIIIIIIIIIIIIIIIIIIIIIIIIIIIIIIIIIIIIIIIIIIIIIIIIIII
AIII4IIIIII4II4IIIIIIIIIIIIIIIIIIIIIIIIIIIIIIIIIIIIIIIIIIIIIIIII
AIIA4II4III4II4II4IIIIIIIIIIIIIIIIIIIIIIIIIIIIIIIIIIIIIIIIIIIIII
AIIAAII44II4II44I44IIIIIIIIIIIIIIIIIIIIIIIIIIIIIIIIIIIIIIIIIIIII
AIIAAAI444I4II444444IIIIIIIIIIIIIIIIIIIIIIIIIIIIIIIIIIIIIIIIIIII
AIIAAAA44444II4444444IIIIIIIIIIIIIIIIIIIIIIIIIIIIIIIIIIIIIIIIIII
AIIAAAAA4444II44444444IIIIIIIIIIIIIIIIIIIIIIIIIIIIIIIIIIIIIIIIII
AIIAAAAAA4444I444444444IIIIIIIIIIIIIIIIIIIIIIIIIIIIIIIIIIIIIIIII
AIIAAAAAAA44444444444444IIIIIIIIIIIIIIIIIIIIIIIIIIIIIIIIIIIIIIII
AIIAAAAAAAA44444444444444IIIIIIIIIIIIIIIIIIIIIIIIIIIIIIIIIIIIIII
AIIAAAAAAAAA44444444444444IIIIIIIIIIIIIIIIIIIIIIIIIIIIIIIIIIIIII
AIIAAAAAAAAAA44444444444444IIIIIIIIIIIIIIIIIIIIIIIIIIIIIIIIIIIII
AIIAAAAAAAAAAA44444444444444IIIIIIIIIIIIIIIIIIIIIIIIIIIIIIIIIIII
AIIAAAAAAAAAAAA44444444444444IIIIIIIIIIIIIIIIIIIIIIIIIIIIIIIIIII
AIIAAAAAAAAAAAAA44444444444444IIIIIIIIIIIIIIIIIIIIIIIIIIIIIIIIII
AIIAAAAAAAAAAAAAA44444444444444IIIIIIIIIIIIIIIIIIIIIIIIIIIIIIIII
AIIAAAAAAAAAAAAAAA44444444444444IIIIIIIIIIIIIIIIIIIIIIIIIIIIIIII
AIIAAAAAAAAAAAAAAA4A444444444444I4IIIIIIIIIIIIIIIIIIIIIIIIIIIIII
AIIAAAAAAAAAAAAAAA4AA44444444444I44IIIIIIIIIIIIIIIIIIIIIIIIIIIII
AIIAAAAAAAAAAAAAAA4AA4A444444444I44I4IIIIIIIIIIIIIIIIIIIIIIIIIII
AIIAAAAAAAAAAAAAAA4AA4AA44444444I44I44IIIIIIIIIIIIIIIIIIIIIIIIII
AIIAAAAAAAAAAAAAAA4AA4AAA4444444I444444IIIIIIIIIIIIIIIIIIIIIIIII
AIIAAAAAAAAAAAAAAA4AA4AAA4A44444I444444I4IIIIIIIIIIIIIIIIIIIIIII
AIIAAAAAAAAAAAAAAA4AA4AAA4AA4444I444444I44IIIIIIIIIIIIIIIIIIIIII
AIIAAAAAAAAAAAAAAA4AA4AAA4AAA44444444444444IIIIIIIIIIIIIIIIIIIII
AIIAAAAAAAAAAAAAAA4AA4AAA4AAA4A444444444444I4IIIIIIIIIIIIIIIIIII
AIIAAAAAAAAAAAAAAA4AA4AAA4AAA4AA44444444444I44IIIIIIIIIIIIIIIIII
AIIAAAAAAAAAAAAAAA4AA4AAA4AAA4AA4A444444444I44I4IIIIIIIIIIIIIIII
AIIAAAAAAAAAAAAAAA4AA4AAA4AAA4AA4AA44444444I44I44IIIIIIIIIIIIIII
AIIAAAAAAAAAAAAAAA4AA4AAA4AAA4AA4AAA4444444I444444IIIIIIIIIIIIII
AIIAAAAAAAAAAAAAAA4AA4AAA4AAA4AA4AAA4A44444I444444I4IIIIIIIIIIII
AIIAAAAAAAAAAAAAAA4AA4AAA4AAA4AA4AAA4AA4444I444444I44IIIIIIIIIII
AIIAAAAAAAAAAAAAAA4AA4AAA4AAA4AA4AAA4AA44A4I444444I44II4IIIIIIII
AIIAAAAAAAAAAAAAAA4AA4AAA4AAA4AA4AAA4AA44A4I44A444444II4I4II4III
AIIAAAAAAAAAAAAAAA4AA4AAA4AAA4AA4AAA4AA44A4I44A44A4444I4I4II4II4
AIIAAAAAAAAAAAAAAA4AA4AAA4AAA4AA4AAA4AA44A4I44A44AA44444I4II44I4
AIIAAAAAAAAAAAAAAA4AA4AAA4AAA4AA4AAA4AA44A4I44A44AA4A44444II44I4
AIIAAAAAAAAAAAAAAA4AA4AAA4AAA4AA4AAA4AA44A4I44A44AA4A4A4444I44I4
AIIAAAAAAAAAAAAAAA4AA4AAA4AAA4AA4AAA4AA44A4I44A44AA4A4AA444444I4
AIIAAAAAAAAAAAAAAA4AA4AAA4AAA4AA4AAA4AA44A4I44A44AA4A4AA4A4444I4
AIIAAAAAAAAAAAAAAA4AA4AAA4AAA4AA4AAA4AA44A4I44A44AA4A4AA4AA44444
AIIAAAAAAAAAAAAAAA4AA4AAA4AAA4AA4AAA4AA44A4I44A44AA4A4AA4AAA4444
AIIAAAAAAAAAAAAAAA4AA4AAA4AAA4AA4AAA4AA44A4I44A44AA4A4AA4AAA444A
AIIAAAAAAAAAAAAAAA4AA4AAA4AAA4AA4AAA4AA44A4444A44AA4A4AA4AAA444A
AIIAAAAAAAAIAAAAAA4AA4AAA4AAA4AA4AAA4AA44A4444A44AA4A4AA4AAA444A
AIIAAAAAAAAIIAAAAA4AA4AAA4AAA4AA4AAA4AA44A4444A44AA4A4AA4AAA444A
AIIAAAAAAAAIIAAAAA4AA4AAA4AAA4AA4AAA4AA44A4444I44AA4A4AA4AAA444A
AIIAAAAAAAAIIAIAAA4AA4AAA4AAA4AA4AAA4AA44A4444I44AA4A4AA4AAA444A
AIIAAAAAAAAIIIIAAA4AA4AAA4AAA4AA4AAA4AA44A4444I44AA4A4AA4AAA444A
AIIAAAAAAAA44IIAAA4AA4AAA4AAA4AA4AAA4AA44A4444I44AA4A4AA4AAA444A
AIIAAAAAAAA44IIAAA4AA4AAA4AAA4AA4AAA4AAA4A4444444AA4A4AA4AAA444A
AIIAAAAAAAA444IAAA4AA4AAA4AAA4AA4AAA4AAA4A4444444AA4A4AA4AAA444A
AIIAAAAAAAA4444AAA4AA4AAA4AAA4AA4AAA4AAA4A4444444AA4A4AA4AAA444A
AIIAAAAAAAA4444AAA4AA4AAA4AAA4AA4AAA4AAA4AA444444AA4A4AA4AAA444A
AIIAAAAAAAA4444AAA4AA4AAA4AAA4AA4AAA4AAA4AA4A4444AA4A4AA4AAA444A
AIIAAAAAAAAA444AAA4AA4AAA4AAA4AA4AAA4AAA4AA4A4444AA4A4AA4AAA444A
AIIAAAAAAAAAA44AAA4AA4AAA4AAA4AA4AAA4AAA4AA4A4444AA4A4AA4AAA444A
AIIAAAAAAAAAA44AAA4AA4AAA4AAA4AA4AAA4AAA4AA4AA444AA4A4AA4AAA444A
AIIAAAAAAAAAAA4AAA4AA4AAA4AAA4AA4AAA4AAA4AA4AA444AA4A4AA4AAA444A
AIIAAAAAAAAAAA4AAA4AA4AAA4AAA4AA4AAA4AAA4AA4AAA44AA4A4AA4AAA444A
AIIAAAAAAAAAAA4AAA4AA4AAA4AAA4AA4AAA4AAA4AA4AAA4AAA4A4AA4AAA444A
A4IAAAAAAAAAAA4AAA4AA4AAA4AAA4AA4AAA4AAA4AA4AAA4AAA4A4AA4AAA444A
A44AAAAAAAAAAA4AAA4AA4AAA4AAA4AA4AAA4AAA4AA4AAA4AAA4A4AA4AAA444A
A44AAAAAAAAAAA4AAA4AA4AAA4AAA4AA4AAA4AAA4AA4AAA4AAA4AAAA4AAA444A
A44AAAAAAAAAAA4AAA4AA4AAA4AAA4AA4AAA4AAA4AA4AAA4AAA4AAAAAAAA444A
A44AAAAAAAAAAA4AAA4AA4AAA4AAA4AA4AAA4AAA4AA4AAA4AAA4AAAAAAAAA44A
A44AAAAAAAAAAA4AAA4AA4AAA4AAA4AA4AAA4AAA4AA4AAA4AAA4AAAAAAAAAA4A
AA4AAAAAAAAAAA4AAA4AA4AAA4AAA4AA4AAA4AAA4AA4AAA4AAA4AAAAAAAAAA4A
AAAAAAAAAAAAAA4AAA4AA4AAA4AAA4AA4AAA4AAA4AA4AAA4AAA4AAAAAAAAAA4A
AAAAAAAAAAAAAA4AAA4AA4AAA4AAA4AA4AAA4AAAAAA4AAA4AAA4AAAAAAAAAA4A
AAAAAAAAAAAAAA4AAA4AA4AAA4AAA4AA4AAA4AAAAAA2AAA4AAA4AAAAAAAAAA4A
AAAAAAAAAAAAAAAAAA4AA4AAA4AAA4AA4AAA4AAAAAA2AAA4AAA4AAAAAAAAAA4A
AAAAAAAAAAAAAAAAAA4AA4AAA4AAA4AA4AAA4AAAAAA2AAAAAAA4AAAAAAAAAA4A
AAAAAAAAAAAAAAAAAA4AA4AAA4AAA4AA4AAA4AAAAAA2AAAAAAAAAAAAAAAAAA4A
AAAAAAAAAAAAAAAAAAAAA4AAA4AAA4AA4AAA4AAAAAA2AAAAAAAAAAAAAAAAAA4A
AAAAAAAAAAAAAAAAAAAAA2AAA4AAA4AA4AAA4AAAAAA2AAAAAAAAAAAAAAAAAA4A
AAAAAAAAAAAAAAAAAAAAA2AAA4AAA4AA4AAA4AAAAAA2AAAAAAAAAAAAAAAAAAAA
AAAAAAAAAAAAAAAAAAAAA2AAAAAAA4AA4AAA4AAAAAA2AAAAAAAAAAAAAAAAAAAA
AAAAAAAAAAAAAAAAAAAAA2AAAAAAAAAA4AAA4AAAAAA2AAAAAAAAAAAAAAAAAAAA
AAAAAAAAAAAAAAAAAAAAA2AAAAAAAAAA2AAA4AAAAAA2AAAAAAAAAAAAAAAAAAAA
AAAAAAAAAAAAAAAAAAAAA2AAAAAAAAAA2AAAAAAAAAA2AAAAAAAAAAAAAAAAAAAA
AAAAAAAAAAAAAAIAAAAAA2AAAAAAAAAA2AAAAAAAAAA2AAAAAAAAAAAAAAAAAAAA
AAAAAAAAAAAAAAIAIAAAA2AAAAAAAAAA2AAAAAAAAAA2AAAAAAAAAAAAAAAAAAAA
AAAIAAAAAAAAAAIAIAAAA2AAAAAAAAAA2AAAAAAAAAA2AAAAAAAAAAAAAAAAAAAA
AIAIAAAAAAAAAAIAIAAAA2AAAAAAAAAA2AAAAAAAAAA2AAAAAAAAAAAAAAAAAAAA
AIAIAAAAAAAAAAIAIAAAA2AAAAAAAAAA2AAAAAAAAAA2AAAAAAAAAAAIAAAAAAAA
AIAIAAAAAAAAAAIAIAAAA2AAAAAAAAAA2AAAAAAAIAA2AAAAAAAAAAAIAAAAAAAA
AIAIAAAAAAAAAAIAIAAAA2AAAAAAAAAA2AAAIAAAIAA2AAAAAAAAAAAIAAAAAAAA
AIAIAAAAAAAAAAIAIAAAA2AAAIAAAAAA2AAAIAAAIAA2AAAAAAAAAAAIAAAAAAAA
AIAIAAAAAAAAAAIAIAAAA2AAAIAAAAAA2AAAIAAAIAA2AAAAAAAAAAAIIAAAAAAA
AIAIAAAAAAAAAAIAIAIAA2AAAIAAAAAA2AAAIAAAIAA2AAAAAAAAAAAIIAAAAAAA
AIAIAAAAAAAAAAIAIAIAA2AAAIAAAAAAIAAAIAAAIAA2AAAAAAAAAAAIIAAAAAAA
AIAIAAAAIAAAAAIAIAIAA2AAAIAAAAAAIAAAIAAAIAA2AAAAAAAAAAAIIAAAAAAA
AIAIAAAAIAAAAAIAIAIAA2AAAIAAAIAAIAAAIAAAIAA2AAAAAAAAAAAIIAAAAAAA
AIAIIAAAIAAAAAIAIAIAA2AAAIAAAIAAIAAAIAAAIAA2AAAAAAAAAAAIIAAAAAAA
AIAIIAAAIAAAAAIAIAIAA2AAAIAAAIAAIAAAIAAAIAA2AAAAAAAAAAAIIAAAIAAA
AIAIIAAAIAAAAAIAIAIAA2AAAIAAAIAAIAAAIAAAIIA2AAAAAAAAAAAIIAAAIAAA
AIAIAAAA4AAAAAIAIAIAA2AAAIAAAIAAIAAAIAAAIIA2AAAAAAAAAAAIIAAAIAAA
AIAIAAAA4AAAAAIAIAIAA2AAAIAAAIAAIAAAIAAAA2A2AAAAAAAAAAAIIAAAIAAA
AIAIAAAA2AAAAA4AIAIAA2AAAIAAAIAAIAAAIAAAA2A2AAAAAAAAAAAIIAAAIAAA
AIAIAAAA2AAAAA4AIAIAA2AAAIAAAIAAIAAAIAAAAAA2AAAAAAAAAAAIIAAAIAAA
AIAIAAAAAAAAAA4AIAIAA2AAAIAAAIAAIAAAIAAAAAA2AAAAAAAAAAAIIAAAIAAA
AIAIAAAAAAAAAA4AIAIAA2AAAIAAAIAAIAAAIAAAAAAAAAAAAAAAAAAIIAAAIAAA
AIAIAAAAAAAAAA4A4AIAA2AAAIAAAIAAIAAAIAAAAAAAAAAAAAAAAAAIIAAAIAAA
AIAIAAAAAAAAAA4A4A4AA2AAAIAAAIAAIAAAIAAAAAAAAAAAAAAAAAAIIAAAIAAA
AIAIAAAAAAAAAAAA4A4AA2AAAIAAAIAAIAAAIAAAAAAAAAAAAAAAAAAIIAAAIAAA
AIAIAAAAAAAAAAAA2A4AA2AAAIAAAIAAIAAAIAAAAAAAAAAAAAAAAAAIIAAAIAAA
AIAIAAAAAAAAAAAA2A4AA2AAAIAAAIAAIAAAIAAAAAAAAAAAAAAAAAA4IAAAIAAA
AIAIAAAAAAAAAAAA2A2AA2AAAIAAAIAAIAAAIAAAAAAAAAAAAAAAAAA4IAAAIAAA
AIAIAAAAAAAAAAAA2A2AA2AAAIAAAIAAIAAAIAAAAAAAAAAAAAAAAAA44AAAIAAA
AIA2AAAAAAAAAAAA2A2AA2AAAIAAAIAAIAAAIAAAAAAAAAAAAAAAAAA44AAAIAAA
AIAAAAAAAAAAAAAA2A2AA2AAAIAAAIAAIAAAIAAAAAAAAAAAAAAAAAA44AAAIAAA
A2AAAAAAAAAAAAAA2A2AA2AAAIAAAIAAIAAAIAAAAAAAAAAAAAAAAAA44AAAIAAA
A2AAAAAAAAAAAAAA2A2AA2AAAIAAAIAAIAAAIAAAAAAAAAAAAAAAAAA24AAA4AAA
A2AAAAAAAAAAAAAA2A2AA2AAAIAAAIAAIAAAIAAAAAAAAAAAAAAAAAAA2AAA4AAA
A2AAAAAAAAAAAAAA2A2AA2AAAIAAAIAAIAAAIAAAAAAAAAAAAAAAAAAA2AAA2AAA
A2AAAAAAAAAAAAAA2A2AA2AAAIAAAIAAIAAAIAAAAAAAAAAAAAAAIAAA2AAA2AAA
A2AAAAAAAAAAAAAA2A2AA2AAAIAAAIAAIAAAIAAAIAAAAAAAAAAAIAAA2AAA2AAA
AIAAAAAAAAAAAAAA2A2AA2AAAIAAAIAAIAAAIAAAIAAAAAAAAAAAIAAA2AAA2AAA
AIAAAAAAAAAAAAAA2A2AA2AAAIAAAIAAIAAAIAAAIAAAAAAAAAAIIAAA2AAA2AAA
AIAAAAIAAAAAAAAA2A2AA2AAAIAAAIAAIAAAIAAAIAAAAAAAAAAIIAAA2AAA2AAA
AIAAAAIIAAAAAAAA2A2AA2AAAIAAAIAAIAAAIAAAIAAAAAAAAAAIIAAA2AAA2AAA
AIAAAAIIAAAAAAAA2A2AA2AAAIAAAIAAIAAAIIAAIAAAAAAAAAAIIAAA2AAA2AAA
AIAAAAIIAAAAAAAA2A2AA2AAAIAAAIAAIAAAIIAAIAAAIAAAAAAIIAAA2AAA2AAA
AIAAAAIIAAAAAAAA2A2AA2AAAIAAAIAAIAAAIIAAIAAAIAIAAAAIIAAA2AAA2AAA
AIAAAAIIAAAAAAAA2A2AA2AAAIAAAIAAIAAAIIAAIAAAIAIAAAAIIAAI2AAA2AAA
AIAAAAIIAAAAAAAA2A2AA2AAAIAAAIAAIAAAIIAAIAAAIAIAAAAIIAAI2AAAIAAA
AIAAAAIIAAAAAAAA2A2AA2AAAIAAAIAAIAAAIIAAIAAAIAIAAAAIIAAI2AAAIAIA
A2AAAA22AAAAAAAA2A2AA2AAAIAAAIAAIAAAIIAAIAAAIAIAAAAIIAAI2AAAIAIA
AAAAAA22AAAAAAAA2A2AA2AAAIAAAIAAIAAAIIAAIAAAIAIAAAAIIAAI2AAAIAIA
AAAAAAA2AAAAAAAA2A2AA2AAAIAAAIAAIAAAIIAAIAAAIAIAAAAIIAAI2AAAIAIA
AAAAAAAAAAAAAAAA2A2AA2AAAIAAAIAAIAAAIIAAIAAAIAIAAAAIIAAI2AAAIAIA
AAAAAAAAAAAAAAAA2A2AA2AAA2AAAIAAIAAAIIAAIAAAIAIAAAAIIAAI2AAAIAIA
AAAAAAAAAAAAAAAA2A2AA2AAA2AAA2AAIAAAIIAAIAAAIAIAAAAIIAAI2AAAIAIA
AAAAAAAAAAAAAAAAAA2AA2AAA2AAA2AA2AAAIIAAIAAAIAIAAAAIIAAI2AAAIAIA
AAAAAAAAAAAAAAAAAAAAA2AAA2AAA2AA2AAAIIAAIAAAIAIAAAAIIAAI2AAAIAIA
AAAAAAAAAAAAAAAAAAAAA2AAA2AAA2AA2AAA2IAAIAAAIAIAAAAIIAAI2AAAIAIA
AAAAAAAAAAAAAAAAAAAAAAAAA2AAA2AA2AAA22AAIAAAIAIAAAAIIAAI2AAAIAIA
AAAAAAAAAAAAAAAAAAAAAAAAA2AAA2AA2AAA22AA2AAAIAIAAAAIIAAI2AAAIAIA
AAAAAAAAAAAAAAAAAAAAAAAAAAAAA2AA2AAA22AA2AAAIAIAAAAIIAAI2AAAIAIA
AAAAAAAAAAAAAAAAAAAAAAAAAAAAA2AA2AAA22AA2AAA2AIAAAAIIAAI2AAAIAIA
AAAAAAAAAAAAAAAAAAAAAAAAAAAAAAAA2AAA22AA2AAA2AIAAAAIIAAI2AAAIAIA
AAAAAAAAAAAAAAAAAAAAAAAAAAAAAAAA2AAA22AA2AAA2A2AAAAIIAAI2AAAIAIA
AAAAAAAAAAAAAAAAAAAAAAAAAAAAAAAAAAAA22AA2AAA2A2AAAAIIAAI2AAAIAIA
AAAAAAAAAAAAAAAAAAAAAAAAAAAAAAAAAAAA22AA2AAA2A2AAAA2IAAI2AAAIAIA
AAAAAAAAAAAAAAAAAAAAAAAAAAAAAAAAAAAAA2AA2AAA2A2AAAA22AAI2AAAIAIA
AAAAAAAAAAAAAAAAAAAAAAAAAAAAAAAAAAAAAAAA2AAA2A2AAAA22AAI2AAAIAIA
AAAAAAAAAAAAAAAAAAAAAAAAAAAAAAAAAAAAAAAA2AAA2A2AAAA22AA22AAAIAIA
AAAAAAAAAAAAAAAAAAAAAAAAAAAAAAAAAAAAAAAAAAAA2A2AAAA22AA22AAAIAIA
AAAAAAAAAAAAAAAAAAAAAAAAAAAAAAAAAAAAAAAAAAAAAA2AAAA22AA22AAA2AIA
AAAAAAAAAAAAAAAAAAAAAAAAAAAAAAAAAAAAAAAAAAAAAAAAAAA22AA22AAA2A2A
AAAAAAAAAAAAAAAAAAAAAAAAAAAAAAAAAAAAAAAAAAAAAAAAAAAA2AA22AAA2A2A
AAAAAAAAAAAAAAAAAAAAAAAAAAAAAAAAAAAAAAAAAAAAAAAAAAAAAAA22AAA2A2A
AAAAAAAAAAAAAAAAAAAAAAAAAAAAAAAAAAAAAAAAAAAAAAAAAAAAAAAA2AAA2A2A
AAAAAAAAAAAAAAAAAAAAAAAAAAAAAAAAAAAAAAAAAAAAAAAAAAAAAAAAAAAA2A2A
AAAAAAAAAAAAAAAAAAAAAAAAAAAAAAAAAAAAAAAAAAAAAAAAAAAAAAAAAAAAAA2A
AAAAAAAAAAAAAAAAAAAAAAAAAAAAAAAAAAAAAAAAAAAAAAAAAAAAAAAAAAAAAAAA
AAAAAAAAAIAAAAAAAAAAAAAAAAAAAAAAAAAAAAAAAAAAAAAAAAAAAAAAAAAAAAAA
AAAAAAAAAIAAAIAAAAAAAAAAAAAAAAAAAAAAAAAAAAAAAAAAAAAAAAAAAAAAAAAA
AAAAAAAAAIAAAIIAAAAAAAAAAAAAAAAAAAAAAAAAAAAAAAAAAAAAAAAAAAAAAAAA
AAAAAAAAAIAAAIIAAAAAAAAAAAAAAIAAAAAAAAAAAAAAAAAAAAAAAAAAAAAAAAAA
AAAAAAAAAIAAAIIAAAAAAAAAAAAAAIAIAAAAAAAAAAAAAAAAAAAAAAAAAAAAAAAA
AAAAAAAAAIAAAIIAAAAAAAAAAAAAAIAIAAAIAAAAAAAAAAAAAAAAAAAAAAAAAAAA
AAAAAAAAAIAAAIIAAAAAAAAAAAAAAIAIAAAIAAAAAIAAAAAAAAAAAAAAAAAAAAAA
AAAAAAAAAIAAAIIAAAAAAAAAAAAAAIAIAAAIAAAAAIAIAAAAAAAAAAAAAAAAAAAA
AAAAAAAAAIAAAIIAAAAAAAAAAAAAAIAIAAAIAAAAAIAIAIAAAAAAAAAAAAAAAAAA
AAAAAAAAAIAAAIIAAAAAAAAAAAAAAIAIAAAIAAAAAIAIAIAIAAAAAAAAAAAAAAAA
AAAAAAAAAIAAAIIAAAAAAAAAAAAAAIAIAAAIAAAAAIAIAIAIAAAIAAAAAAAAAAAA
AAAAAAAAAIAAAIIAAAAAAAAAAAAAAIAIAAAIAAAAAIAIAIAIAAAIAIAAAAAAAAAA
AAAAAAAAAIAAAIIAAAAAAAAAAAAAAIAIAAAIAAAAAIAIAIAIAAAIAIAAAAAAAAAI
AAAAAAAAA4AAAIIAAAAAAAAAAAAAAIAIAAAIAAAAAIAIAIAIAAAIAIAAAAAAAAAI
AAAAAAAAA4AAAI4AAAAAAAAAAAAAAIAIAAAIAAAAAIAIAIAIAAAIAIAAAAAAAAAI
AAAAAAAAA4AAA44AAAAAAAAAAAAAAIAIAAAIAAAAAIAIAIAIAAAIAIAAAAAAAAAI
AAAAAAAAAAAAA44AAAAAAAAAAAAAAIAIAAAIAAAAAIAIAIAIAAAIAIAAAAAAAAAI
AAAAAAAAAAAAAA4AAAAAAAAAAAAAAIAIAAAIAAAAAIAIAIAIAAAIAIAAAAAAAAAI
AAAAAAAAAAAAAAAAAAAAAAAAAAAAAIAIAAAIAAAAAIAIAIAIAAAIAIAAAAAAAAAI
AAAAAAAAAAAAAAAAAAAAAAAAAAAAA4A4AAAIAAAAAIAIAIAIAAAIAIAAAAAAAAAI
AAAAAAAAAAAAAAAAAAAAAAAAAAAAA4A4AAA4AAAAAIAIAIAIAAAIAIAAAAAAAAAI
AAAAAAAAAAAAAAAAAAAAAAAAAAAAA4A4AAA4AAAAA4AIAIAIAAAIAIAAAAAAAAAI
AAAAAAAAAAAAAAAAAAAAAAAAAAAAA4AAAAA4AAAAA4AIAIAIAAAIAIAAAAAAAAAI
AAAAAAAAAAAAAAAAAAAAAAAAAAAAA4AAAAA4AAAAA4A4A4AIAAAIAIAAAAAAAAAI
AAAAAAAAAAAAAAAAAAAAAAAAAAAAA4AAAAAAAAAAA4A4A4AIAAAIAIAAAAAAAAAI
AAAAAAAAAAAAAAAAAAAAAAAAAAAAA4AAAAAAAAAAA4A4A4A4AAAIAIAAAAAAAAAI
AAAAAAAAAAAAAAAAAAAAAAAAAAAAA4AAAAAAAAAAAAA4A4A4AAAIAIAAAAAAAAAI
AAAAAAAAAAAAAAAAAAAAAAAAAAAAA4AAAAAAAAAAAAA4A4A4AAA4A4AAAAAAAAAI
AAAAAAAAAAAAAAAAAAAAAAAAAAAAA4AAAAAAAAAAAAA4A4A4AAA4A4AAAAAAAAA4
AAAAAAAAAAAAAAAAAAAAAAAAAAAAA4AAAAAAAAAAAAA4A4A4AAA4A4AAAAAAAAAA
AAAAAAAAAAAAAAAAAIAAAAAAAAAAA4AAAAAAAAAAAAA4A4A4AAA4A4AAAAAAAAAA
AAAAAAAAAAAAIAAAAIAAAAAAAAAAA4AAAAAAAAAAAAA4A4A4AAA4A4AAAAAAAAAA
AAAAAAAAAAAIIAAAAIAAAAAAAAAAA4AAAAAAAAAAAAA4A4A4AAA4A4AAAAAAAAAA
AAAAAAAAAAAIIAAAAIAAAAAAAAAAA4AAAAAAAAAAAAA4A4A4AAA4I4AAAAAAAAAA
AAAAAAAAAAAIIAAAAIAAAAAAAAAAA4AAAAAAAAAAAAA4A4A4AAI4I4AAAAAAAAAA
AAAAAAAAAAAIIAAAAIAAAAAAAAAAA4AAAAAAAAAAAIA4A4A4AAI4I4AAAAAAAAAA
AAAAAAAAAAAIIAAAAIAAAAAAAAAAA4AAAAAAAAIAAIA4A4A4AAI4I4AAAAAAAAAA
AAAAAAAAAAAIIAAAAIAAAAAAAAAAA4AAAIAAAAIAAIA4A4A4AAI4I4AAAAAAAAAA
AAAAAAAAAAAIIAAAAIAAAAAAAAIAA4AAAIAAAAIAAIA4A4A4AAI4I4AAAAAAAAAA
AAAAAAAAAAAIIAIAAIAAAAAAAAIAA4AAAIAAAAIAAIA4A4A4AAI4I4AAAAAAAAAA
AAAAAAAAAAAIIIIAAIAAAAAAAAIAA4AAAIAAAAIAAIA4A4A4AAI4I4AAAAAAAAAA
AAAAAAAAAAIIIIIAAIAAAAAAAAIAA4AAAIAAAAIAAIA4A4A4AAI4I4AAAAAAAAAA
AAAIAAAAAAIIIIIAAIAAAAAAAAIAA4AAAIAAAAIAAIA4A4A4AAI4I4AAAAAAAAAA
AAAIAAAAAAIIIIIAAIAAAAAAAAIAA4AAAIAAAAIAAIA4A4I4AAI4I4AAAAAAAAAA
AAAIAAAAAAIIIIIAIIAAAAAAAAIAA4AAAIAAAAIAAIA4A4I4AAI4I4AAAAAAAAAA
AAAIAAAAAAIIIIIAIIAAAAAAAAIAA4AAAIAAAAIAAIA4A4I4AAI4I4AAAAIAAAAA
AAAIAAAAAAIIIIIAIIAAAAAAAAIAA4AAAIAAAAIAAIA4A4I4AAI4I4AAAIIAAAAA
AAAIAAAAAAIIIIIAIIAAAAAAAAIAA4AAAIAAAAIAAIA4A4I4AAI4I4AIAIIAAAAA
AAAIAAAAAAI4IIIAIIAAAAAAAAIAA4AAAIAAAAIAAIA4A4I4AAI4I4AIAIIAAAAA
AAAIAAAAAAI4IIIAIIAAAAAAAAIAA4AAAIAAAAIAAIA4A444AA44I4AIAIIAAAAA
AAAIAAAAAAI44IIA4IAAAAAAAAIAA4AAAIAAAAIAAIA4A444AA44I4AIAIIAAAAA
AAAIAAAAAA4444IA44AAAAAAAAIAA4AAAIAAAAIAAIA4A444AA44I4AIAIIAAAAA
AAAIAAAAAA4444IA44AAAAAAAA4AA4AAAIAAAAIAAAA4A444AA4444AIAIIAAAAA
AAAIAAAAAA4444IA44AAAAAAAA4AA4AAAIAAAAIAAAA4A444AA4444A4AIIAAAAA
AAAIAAAAAA4A44IA44AAAAAAAA4AA4AAAIAAAAIAAAA4A444AA4444A4AIIAAAAA
AAAIAAAAAA4AA4IA44AAAAAAAA4AA4AAAIAAAAIAAAA4A444AA4444A4AIIAAAAA
AAAIAAAAAA4AA4IA44AAAAAAAA4AA4AAAIAAAAIAAAA4AA44AA4444A4AIIAAAAA
AAAIAAAAAA4AA4IA44AAAAAAAA4AA4AAAIAAAAIAAAA4AAA4AA4444A4A4IAAAAA
AAAIAAAAAA4AAA4A44AAAAAAAA4AA4AAAIAAAAIAAAA4AAA4AA4444A4A4IAAAAA
AAAIAAAAAA4AAA4A44AAAAAAAA4AA4AAA4AAAAIAAAA4AAA4AA4444A4A4IAAAAA
AAAIAAAAAA4AAA4AA4AAAAAAAA4AA4AAA4AAAAIAAAA4AAA4AA4444A4A4IAAAAA
AAAIAAAAAA4AAA4AA4AAAAAAAA4AA4AAA4AAAAIAAAA4AAA4AAA444A4A4IAAAAA
AAAIAAAAAA4AAA4AA4AAAAAAAA4AA4AAA4AAAAIAAAA4AAA4AAA4A4A4A4IAAAAA
AAAIAAAAAA4AAA4AAAAAAAAAAA4AA4AAA4AAAAIAAAA4AAA4AAA4A4A4A4IAAAAA
AAAIAAAAAA4AAA4AAAAAAAAAAA4AA4AAA4AAAA4AAAA4AAA4AAA4AAA4A4IAAAAA
AAAIAAAAAA4AAA4AAAAAAAAAAA4AA4AAA4AAAA4AAAA4AAA4AAA4AAAAA4IAAAAA
AAAIAAAAAA4AAA4AAAAAAAAAAA4AA4AAA4AAAA4AAAA4AAA4AAA4AAAAAA4AAAAA
AAAIAAAAAA4AAA4AAAAAAAAAAAAAA4AAA4AAAA4AAAA4AAA4AAA4AAAAAA4AAAAA
AAAIAAAAAA4AAA4AAAAAAAAAAAAAA4AAAAAAAA4AAAA4AAA4AAA4AAAAAA4AAAAA
AAA4AAAAAA4AAA4AAAAAAAAAAAAAA4AAAAAAAA4AAAA4AAA4AAA4AAAAAA4AAAAA
AAA4AAAAAA4AAA4AAAAAAAAAAAAAA4AAAAAAAAAAAAA4AAA4AAA4AAAAAA4AAAAA
AAA4AAAAAA4AAA4AAAAAAAAAAAAAA4AAAAAAAAAAAAA2AAA4AAA4AAAAAA4AAAAA
AAA4AAAAAA2AAA4AAAAAAAAAAAAAA4AAAAAAAAAAAAA2AAA4AAA4AAAAAA4AAAAA
AAA4AAAAAA2AAAAAAAAAAAAAAAAAA4AAAAAAAAAAAAA2AAA4AAA4AAAAAA4AAAAA
AAA4AAAAAA2AAAAAAAAAAAAAAAAAA4AAAAAAAAAAAAA2AAAAAAA4AAAAAA4AAAAA
AAA4AAAAAA2AAAAAAAAAAAAAAAAAA4AAAAAAAAAAAAA2AAAAAAAAAAAAAA4AAAAA
AAA4AAAAAA2AAAAAAAAAAAAAAAAAA4AAAAAAAAAAAAA2AAAAAAAAAAAAAAAAAAAA
AAA4AAAAAA2AAAAAAAAAAAAAAAAAAAAAAAAAAAAAAAA2AAAAAAAAAAAAAAAAAAAA
AAAAAAAAAA2AAAAAAAAAAAAAAAAAAAAAAAAAAAAAAAA2AAAAAAAAAAAAAAAAAAAA
AAAAAAAAAA2AAAIAAAAAAAAAAAAAAAAAAAAAAAAAAAA2AAAAAAAAAAAAAAAAAAAA
AIAAAAAAAA2AAAIAAAAAAAAAAAAAAAAAAAAAAAAAAAA2AAAAAAAAAAAAAAAAAAAA
AIAAAAAAAA2AAAIAAAAAAAAAAAAAAAAAAAAAIAAAAAA2AAAAAAAAAAAAAAAAAAAA
AIAAAAAAAA2AAAIAAAIAAAAAAAAAAAAAAAAAIAAAAAA2AAAAAAAAAAAAAAAAAAAA
AIAAAAAAIA2AAAIAAAIAAAAAAAAAAAAAAAAAIAAAAAA2AAAAAAAAAAAAAAAAAAAA
AIAAIAAAIA2AAAIAAAIAAAAAAAAAAAAAAAAAIAAAAAA2AAAAAAAAAAAAAAAAAAAA
AIAAIAAAIA2AAAIAAAIAAAAAAAAAAAAAAAAAIAAAAAA2AAAAAAAAAAAAAAAAIAAA
AIAAIAAAIA2AAAIAAAIAAAAAAAAAAAAAAAAAIAAAAIA2AAAAAAAAAAAAAAAAIAAA
AIAAAAAA4A2AAAIAAAIAAAAAAAAAAAAAAAAAIAAAAIA2AAAAAAAAAAAAAAAAIAAA
AIAAAAAA4A2AAAIAAAIAAAAAAAAAAAAAAAAAIAAAA2A2AAAAAAAAAAAAAAAAIAAA
AIAAAAAA2A2AAAIAAAIAAAAAAAAAAAAAAAAAIAAAA2A2AAAAAAAAAAAAAAAAIAAA
AIAAAAAA2A2AAAIAAAIAAAAAAAAAAAAAAAAAIAAAAAA2AAAAAAAAAAAAAAAAIAAA
AIAAAAAAAA2AAA4AAAIAAAAAAAAAAAAAAAAAIAAAAAA2AAAAAAAAAAAAAAAAIAAA
AIAAAAAAAA2AAA4AAAIAAAAAAAAAAAAAAAAAIAAAAAAAAAAAAAAAAAAAAAAAIAAA
AIAAAAAAAAAAAA4AAAIAAAAAAAAAAAAAAAAAIAAAAAAAAAAAAAAAAAAAAAAAIAAA
AIAAAAAAAAAAAAAAAA4AAAAAAAAAAAAAAAAAIAAAAAAAAAAAAAAAAAAAAAAAIAAA
AIAAAAAAAAAAAAAAAA2AAAAAAAAAAAAAAAAAIAAAAAAAAAAAAAAAAAAAAAAAIAAA
A2AAAAAAAAAAAAAAAA2AAAAAAAAAAAAAAAAAIAAAAAAAAAAAAAAAAAAAAAAAIAAA
A2AAAAAAAAAAAAAAAA2AAAAAAAAAAAAAAAAAIAAAAAAAAAAAAAAAAAAAAAAA4AAA
A2AAAAAAAAAAAAAAAA2AAAAAAAAAAAAAAAAAIAAAAAAAAAAAAAAAAAAAAAAA2AAA
A2AAAAAAAAAIAAAAAA2AAAAAAAAAAAAAAAAAIAAAAAAAAAAAAAAAAAAAAAAA2AAA
A2AAAAAAAAAIAAAAAA2AAAAAAAAAAAAAAAAAIAAAAAAAAAAAAAAAAAIAAAAA2AAA
A2AAAAAAAAAIAAAAAA2AAAAAAAAAAAAAAAAAIAAAAAAAAAAAAAAAAAIAAAAA2IAA
A2AAAAAAAAAIAAAAAA2AAAAAAAAAAAAAAAAAIAAAAIAAAAAAAAAAAAIAAAAA2IAA
A2AAAAAAAAAIAAAAAA2AAAAAAAAAAAAAAAAAIAAAAIAAAAAAAAAAAAIAAIAA2IAA
A2AAAAIAAAAIAAAAAA2AAAAAAAAAAAAAAAAAIAAAAIAAAAAAAAAAAAIAAIAA2IAA
A2AAAAIIAAAIAAAAAA2AAAAAAAAAAAAAAAAAIAAAAIAAAAAAAAAAAAIAAIAA2IAA
A2AAAAIIAAAIAAAAAA2AAAAAAAAAAAAAAAAAIAAAAIAAAAIAAAAAAAIAAIAA2IAA
A2AAAAIIAAAIAAAAAA2AAAAAAAAAAAAAAAAAIAAAAIAAAAIAAAAAAAIAAIAAIIAA
A2AAAA22AAA2AAAAAA2AAAAAAAAAAAAAAAAAIAAAAIAAAAIAAAAAAAIAAIAAIIAA
AAAAAA22AAA2AAAAAA2AAAAAAAAAAAAAAAAAIAAAAIAAAAIAAAAAAAIAAIAAIIAA
AAAAAAA2AAA2AAAAAA2AAAAAAAAAAAAAAAAAIAAAAIAAAAIAAAAAAAIAAIAAIIAA
AAAAAAAAAAA2AAAAAA2AAAAAAAAAAAAAAAAAIAAAAIAAAAIAAAAAAAIAAIAAIIAA
AAAAAAAAAAAAAAAAAA2AAAAAAAAAAAAAAAAAIAAAAIAAAAIAAAAAAAIAAIAAIIAA
AAAAAAAAAAAAAAAAAAAAAAAAAAAAAAAAAAAAIAAAAIAAAAIAAAAAAAIAAIAAIIAA
AAAAAAAAAAAAAAAAAAAAAAAAAAAAAAAAAAAA2AAAAIAAAAIAAAAAAAIAAIAAIIAA
AAAAAAAAAAAAAAAAAAAAAAAAAAAAAAAAAAAA2AAAA2AAAAIAAAAAAAIAAIAAIIAA
AAAAAAAAAAAAAAAAAAAAAAAAAAAAAAAAAAAA2AAAA2AAAA2AAAAAAAIAAIAAIIAA
AAAAAAAAAAAAAAAAAAAAAAAAAAAAAAAAAAAAAAAAA2AAAA2AAAAAAAIAAIAAIIAA
AAAAAAAAAAAAAAAAAAAAAAAAAAAAAAAAAAAAAAAAA2AAAA2AAAAAAA2AAIAAIIAA
AAAAAAAAAAAAAAAAAAAAAAAAAAAAAAAAAAAAAAAAAAAAAA2AAAAAAA2AA2AAIIAA
AAAAAAAAAAAAAAAAAAAAAAAAAAAAAAAAAAAAAAAAAAAAAA2AAAAAAA2AA2AA2IAA
AAAAAAAAAAAAAAAAAAAAAAAAAAAAAAAAAAAAAAAAAAAAAA2AAAAAAA2AA2AA22AA
AAAAAAAAAAAAAAAAAAAAAAAAAAAAAAAAAAAAAAAAAAAAAAAAAAAAAA2AA2AA22AA
AAAAAAAAAAAAAAAAAAAAAAAAAAAAAAAAAAAAAAAAAAAAAAAAAAAAAAAAA2AA22AA
AAAAAAAAAAAAAAAAAAAAAAAAAAAAAAAAAAAAAAAAAAAAAAAAAAAAAAAAAAAA22AA
AAAAAAAAAAAAAAAAAAAAAAAAAAAAAAAAAAAAAAAAAAAAAAAAAAAAAAAAAAAAA2AA
AAAAAAAAAAAAAAAAAAAAAAAAAAAAAAAAAAAAAAAAAAAAAAAAAAAAAAAAAAAAAAAA
AAAAAAAAAIAAAAAAAAAAAAAAAAAAAAAAAAAAAAAAAAAAAAAAAAAAAAAAAAAAAAAA
AAAAAAAAAIAAAIAAAAAAAAAAAAAAAAAAAAAAAAAAAAAAAAAAAAAAAAAAAAAAAAAA
AAAAAAAAAIAAAIAAIAAAAAAAAAAAAAAAAAAAAAAAAAAAAAAAAAAAAAAAAAAAAAAA
AAAAAAAAAIAAAIAAIAAAAIAAAAAAAAAAAAAAAAAAAAAAAAAAAAAAAAAAAAAAAAAA
AAAAAAAAAIAAAIAAIAAAAIAAAAAAAAAAAAAAAAAAAAAAAAAIAAAAAAAAAAAAAAAA
AAAAAAAAAIAAAIAAIAAAAIAAAAAAAAAAAAAAAAAAAAAAAAAIAAAAIAAAAAAAAAAA
AAAAAAAAAIAAAIAAIAAAAIAAAAAAAAAAAAAAAAAAAAAAAAAIAAAAIIAAAAAAAAAA
AAAAAAAAAIAAAIAA4AAAAIAAAAAAAAAAAAAAAAAAAAAAAAAIAAAAIIAAAAAAAAAA
AAAAAAAAAIAAA4AA4AAAAIAAAAAAAAAAAAAAAAAAAAAAAAAIAAAAIIAAAAAAAAAA
AAAAAAAAA4AAA4AA4AAAAIAAAAAAAAAAAAAAAAAAAAAAAAAIAAAAIIAAAAAAAAAA
AAAAAAAAAAAAA4AA4AAAAIAAAAAAAAAAAAAAAAAAAAAAAAAIAAAAIIAAAAAAAAAA
AAAAAAAAAAAAA4AA4AAAA4AAAAAAAAAAAAAAAAAAAAAAAAAIAAAAIIAAAAAAAAAA
AAAAAAAAAAAAAAAA4AAAA4AAAAAAAAAAAAAAAAAAAAAAAAAIAAAAIIAAAAAAAAAA
AAAAAAAAAAAAAAAAAAAAA4AAAAAAAAAAAAAAAAAAAAAAAAAIAAAAIIAAAAAAAAAA
AAAAAAAAAAAAAAAAAAAAA4AAAAAAAAAAAAAAAAAAAAAAAAAIAAAA4IAAAAAAAAAA
AAAAAAAAAAAAAAAAAAAAA4AAAAAAAAAAAAAAAAAAAAAAAAAIAAAA44AAAAAAAAAA
AAAAAAAAAAAAAAAAAAAAA4AAAAAAAAAAAAAAAAAAAAAAAAAIAAAAA4AAAAAAAAAA
AAAAAAAAAAAAAAAAAAAAA4AAAAAAAAAAAAAAAAAAAAAAAAA4AAAAA4AAAAAAAAAA
IIIIIIIIIIIIIIIIIIIIIIIIIIIIIIIIIIIIIIIIIIIIIIIIIIIIIIIIIIIIIIII
[MLOP] Prefetch Degree Mean: 7.94358
[MLOP] Prefetch Degree SD: 4.81758
[MLOP] Max Score Left Mean (%): 32.78864
[MLOP] Max Score Left SD (%): 21.08471
[MLOP] Max Score Right Mean (%): 70.97975
[MLOP] Max Score Right SD (%): 17.44667

Channel_0_RQ_row_buffer_hit 885576
Channel_0_RQ_row_buffer_miss 1496659
Channel_0_WQ_row_buffer_hit 164328
Channel_0_WQ_row_buffer_miss 535530
Channel_0_WQ_full 56
Channel_0_dbus_congested 1927154

avg_congested_cycle 10

DRAM_bw_pochs 668472
DRAM_bw_level_0 337979
DRAM_bw_level_1 163011
DRAM_bw_level_2 84927
DRAM_bw_level_3 82555
