*************************************************
   ChampSim Multicore Out-of-Order Simulator
   Last compiled: Apr  3 2025 20:54:34
*************************************************
parsing config file: /home/zir/Pythia/config/nopref.ini

trace_0 /home/zir/ChampSim/ML-DPC/ChampSimTraces/spec06/433.milc-s2.trace.gz
adding L2C_PREFETCHER: NONE
Initialize SHIP state
warmup_instructions 10000000
simulation_instructions 50000000
champsim_seed 165
measure_ipc 0
measure_ipc_epoch 1000
measure_dram_bw 1
measure_dram_bw_epoch 256
measure_cache_acc 1
measure_cache_acc_epoch 1024
l1d_perfect 0
l2c_perfect 0
llc_perfect 0
l1d_semi_perfect 0
l2c_semi_perfect 0
llc_semi_perfect 0
semi_perfect_cache_page_buffer_size 64

num_cpus 1
cpu_freq 4000
dram_io_freq 2400
page_size 4096
block_size 64
max_read_per_cycle 8
max_fill_per_cycle 1
dram_channels 1
log2_dram_channels 0
dram_ranks 1
dram_banks 8
dram_rows 65536
dram_columns 128
dram_row_size 8
dram_size 4096
dram_pages 1048576

fetch_width 6
decode_width 6
exec_width 4
lq_width 2
sq_width 2
retire_width 4
scheduler_size 128
branch_mispredict_penalty 20
rob_size 256
lq_size 72
sq_size 56
num_instr_destinations_sparc 4
num_instr_destinations 2
num_instr_sources 4

itlb_set 16
itlb_way 8
itlb_rq_size 16
itlb_wq_size 16
itlb_pq_size 0
itlb_mshr_size 8
itlb_latency 1

dtlb_set 16
dtlb_way 4
dtlb_rq_size 16
dtlb_wq_size 16
dtlb_pq_size 0
dtlb_mshr_size 8
dtlb_latency 1

stlb_set 128
stlb_way 12
stlb_rq_size 32
stlb_wq_size 32
stlb_pq_size 0
stlb_mshr_size 16
stlb_latency 8

l1i_size 32
l1i_set 64
l1i_way 8
l1i_rq_size 64
l1i_wq_size 64
l1i_pq_size 8
l1i_mshr_size 8
l1i_latency 1

l1d_size 32
l1d_set 64
l1d_way 8
l1d_rq_size 64
l1d_wq_size 64
l1d_pq_size 8
l1d_mshr_size 16
l1d_latency 4

l2c_size 256
l2c_set 512
l2c_way 8
l2c_rq_size 32
l2c_wq_size 32
l2c_pq_size 32
l2c_mshr_size 32
l2c_latency 10

llc_size 2048
llc_set 2048
llc_way 16
llc_rq_size 32
llc_wq_size 32
llc_pq_size 32
llc_mshr_size 64
llc_latency 20

dram_channel_width 8
dram_wq_size 64
dram_rq_size 64
tRP 15
tRCD 15
tCAS 12.5
dram_dbus_turn_around_time 30
dram_write_high_wm 56
dram_write_low_wm 48
min_dram_writes_per_switch 16
dram_mtps 2400
dram_dbus_return_time 13


Heartbeat CPU  0 instructions:    1000002 cycles:     400269 heartbeat IPC: 2.49832 cumulative IPC: 2.49832 (Simulation time: 0 hr 0 min 2 sec) 
Heartbeat CPU  0 instructions:    2000000 cycles:     800436 heartbeat IPC: 2.49895 cumulative IPC: 2.49864 (Simulation time: 0 hr 0 min 4 sec) 
Heartbeat CPU  0 instructions:    3000001 cycles:    1200700 heartbeat IPC: 2.49835 cumulative IPC: 2.49854 (Simulation time: 0 hr 0 min 5 sec) 
Heartbeat CPU  0 instructions:    4000000 cycles:    1600925 heartbeat IPC: 2.49859 cumulative IPC: 2.49856 (Simulation time: 0 hr 0 min 6 sec) 
Heartbeat CPU  0 instructions:    5000000 cycles:    2001134 heartbeat IPC: 2.49869 cumulative IPC: 2.49858 (Simulation time: 0 hr 0 min 8 sec) 
Heartbeat CPU  0 instructions:    6000001 cycles:    2401342 heartbeat IPC: 2.49870 cumulative IPC: 2.49860 (Simulation time: 0 hr 0 min 9 sec) 
Heartbeat CPU  0 instructions:    7000001 cycles:    2801546 heartbeat IPC: 2.49873 cumulative IPC: 2.49862 (Simulation time: 0 hr 0 min 11 sec) 
Heartbeat CPU  0 instructions:    8000000 cycles:    3201746 heartbeat IPC: 2.49875 cumulative IPC: 2.49864 (Simulation time: 0 hr 0 min 12 sec) 
Heartbeat CPU  0 instructions:    9000003 cycles:    3602014 heartbeat IPC: 2.49833 cumulative IPC: 2.49860 (Simulation time: 0 hr 0 min 14 sec) 
Heartbeat CPU  0 instructions:   10000002 cycles:    4002228 heartbeat IPC: 2.49866 cumulative IPC: 2.49861 (Simulation time: 0 hr 0 min 15 sec) 

Warmup complete CPU  0 instructions:   10000002 cycles:    4002228 (Simulation time: 0 hr 0 min 15 sec) 

Heartbeat CPU  0 instructions:   11000003 cycles:    5911320 heartbeat IPC: 0.52381 cumulative IPC: 0.52381 (Simulation time: 0 hr 0 min 17 sec) 
Heartbeat CPU  0 instructions:   12000000 cycles:    7829932 heartbeat IPC: 0.52121 cumulative IPC: 0.52251 (Simulation time: 0 hr 0 min 19 sec) 
Heartbeat CPU  0 instructions:   13000003 cycles:    9742348 heartbeat IPC: 0.52290 cumulative IPC: 0.52264 (Simulation time: 0 hr 0 min 21 sec) 
Heartbeat CPU  0 instructions:   14000000 cycles:   11699722 heartbeat IPC: 0.51089 cumulative IPC: 0.51965 (Simulation time: 0 hr 0 min 23 sec) 
Heartbeat CPU  0 instructions:   15000000 cycles:   13650173 heartbeat IPC: 0.51270 cumulative IPC: 0.51824 (Simulation time: 0 hr 0 min 25 sec) 
Heartbeat CPU  0 instructions:   16000000 cycles:   15605733 heartbeat IPC: 0.51136 cumulative IPC: 0.51708 (Simulation time: 0 hr 0 min 27 sec) 
Heartbeat CPU  0 instructions:   17000000 cycles:   17547959 heartbeat IPC: 0.51487 cumulative IPC: 0.51677 (Simulation time: 0 hr 0 min 29 sec) 
Heartbeat CPU  0 instructions:   18000003 cycles:   19494210 heartbeat IPC: 0.51381 cumulative IPC: 0.51640 (Simulation time: 0 hr 0 min 31 sec) 
Heartbeat CPU  0 instructions:   19000000 cycles:   21456471 heartbeat IPC: 0.50961 cumulative IPC: 0.51563 (Simulation time: 0 hr 0 min 33 sec) 
Heartbeat CPU  0 instructions:   20000000 cycles:   23412967 heartbeat IPC: 0.51112 cumulative IPC: 0.51518 (Simulation time: 0 hr 0 min 35 sec) 
Heartbeat CPU  0 instructions:   21000003 cycles:   25386980 heartbeat IPC: 0.50658 cumulative IPC: 0.51439 (Simulation time: 0 hr 0 min 37 sec) 
Heartbeat CPU  0 instructions:   22000002 cycles:   27340985 heartbeat IPC: 0.51177 cumulative IPC: 0.51417 (Simulation time: 0 hr 0 min 39 sec) 
Heartbeat CPU  0 instructions:   23000002 cycles:   29293307 heartbeat IPC: 0.51221 cumulative IPC: 0.51402 (Simulation time: 0 hr 0 min 41 sec) 
Heartbeat CPU  0 instructions:   24000000 cycles:   31256638 heartbeat IPC: 0.50934 cumulative IPC: 0.51368 (Simulation time: 0 hr 0 min 43 sec) 
Heartbeat CPU  0 instructions:   25000001 cycles:   33207623 heartbeat IPC: 0.51256 cumulative IPC: 0.51360 (Simulation time: 0 hr 0 min 45 sec) 
Heartbeat CPU  0 instructions:   26000001 cycles:   35183648 heartbeat IPC: 0.50607 cumulative IPC: 0.51313 (Simulation time: 0 hr 0 min 47 sec) 
Heartbeat CPU  0 instructions:   27000001 cycles:   37143549 heartbeat IPC: 0.51023 cumulative IPC: 0.51295 (Simulation time: 0 hr 0 min 49 sec) 
Heartbeat CPU  0 instructions:   28000000 cycles:   39098337 heartbeat IPC: 0.51156 cumulative IPC: 0.51288 (Simulation time: 0 hr 0 min 51 sec) 
Heartbeat CPU  0 instructions:   29000000 cycles:   41055078 heartbeat IPC: 0.51105 cumulative IPC: 0.51278 (Simulation time: 0 hr 0 min 53 sec) 
Heartbeat CPU  0 instructions:   30000000 cycles:   43012290 heartbeat IPC: 0.51093 cumulative IPC: 0.51269 (Simulation time: 0 hr 0 min 55 sec) 
Heartbeat CPU  0 instructions:   31000003 cycles:   44962310 heartbeat IPC: 0.51282 cumulative IPC: 0.51269 (Simulation time: 0 hr 0 min 57 sec) 
Heartbeat CPU  0 instructions:   32000000 cycles:   46925129 heartbeat IPC: 0.50947 cumulative IPC: 0.51255 (Simulation time: 0 hr 0 min 59 sec) 
Heartbeat CPU  0 instructions:   33000001 cycles:   48885459 heartbeat IPC: 0.51012 cumulative IPC: 0.51244 (Simulation time: 0 hr 1 min 0 sec) 
Heartbeat CPU  0 instructions:   34000002 cycles:   50846873 heartbeat IPC: 0.50984 cumulative IPC: 0.51233 (Simulation time: 0 hr 1 min 2 sec) 
Heartbeat CPU  0 instructions:   35000002 cycles:   52822837 heartbeat IPC: 0.50608 cumulative IPC: 0.51208 (Simulation time: 0 hr 1 min 4 sec) 
Heartbeat CPU  0 instructions:   36000000 cycles:   54797969 heartbeat IPC: 0.50629 cumulative IPC: 0.51185 (Simulation time: 0 hr 1 min 6 sec) 
Heartbeat CPU  0 instructions:   37000002 cycles:   56748764 heartbeat IPC: 0.51261 cumulative IPC: 0.51188 (Simulation time: 0 hr 1 min 8 sec) 
Heartbeat CPU  0 instructions:   38000001 cycles:   58704671 heartbeat IPC: 0.51127 cumulative IPC: 0.51186 (Simulation time: 0 hr 1 min 10 sec) 
Heartbeat CPU  0 instructions:   39000000 cycles:   60680802 heartbeat IPC: 0.50604 cumulative IPC: 0.51166 (Simulation time: 0 hr 1 min 12 sec) 
Heartbeat CPU  0 instructions:   40000000 cycles:   62645026 heartbeat IPC: 0.50911 cumulative IPC: 0.51157 (Simulation time: 0 hr 1 min 14 sec) 
Heartbeat CPU  0 instructions:   41000000 cycles:   64609694 heartbeat IPC: 0.50899 cumulative IPC: 0.51149 (Simulation time: 0 hr 1 min 16 sec) 
Heartbeat CPU  0 instructions:   42000000 cycles:   66582227 heartbeat IPC: 0.50696 cumulative IPC: 0.51135 (Simulation time: 0 hr 1 min 18 sec) 
Heartbeat CPU  0 instructions:   43000003 cycles:   68538533 heartbeat IPC: 0.51117 cumulative IPC: 0.51134 (Simulation time: 0 hr 1 min 20 sec) 
Heartbeat CPU  0 instructions:   44000000 cycles:   70504361 heartbeat IPC: 0.50869 cumulative IPC: 0.51126 (Simulation time: 0 hr 1 min 22 sec) 
Heartbeat CPU  0 instructions:   45000000 cycles:   72465076 heartbeat IPC: 0.51002 cumulative IPC: 0.51123 (Simulation time: 0 hr 1 min 24 sec) 
Heartbeat CPU  0 instructions:   46000001 cycles:   74422943 heartbeat IPC: 0.51076 cumulative IPC: 0.51121 (Simulation time: 0 hr 1 min 26 sec) 
Heartbeat CPU  0 instructions:   47000002 cycles:   76376140 heartbeat IPC: 0.51198 cumulative IPC: 0.51123 (Simulation time: 0 hr 1 min 28 sec) 
Heartbeat CPU  0 instructions:   48000000 cycles:   78342725 heartbeat IPC: 0.50849 cumulative IPC: 0.51116 (Simulation time: 0 hr 1 min 30 sec) 
Heartbeat CPU  0 instructions:   49000001 cycles:   80294396 heartbeat IPC: 0.51238 cumulative IPC: 0.51119 (Simulation time: 0 hr 1 min 32 sec) 
Heartbeat CPU  0 instructions:   50000001 cycles:   82260540 heartbeat IPC: 0.50861 cumulative IPC: 0.51113 (Simulation time: 0 hr 1 min 34 sec) 
Heartbeat CPU  0 instructions:   51000000 cycles:   84233303 heartbeat IPC: 0.50690 cumulative IPC: 0.51102 (Simulation time: 0 hr 1 min 36 sec) 
Heartbeat CPU  0 instructions:   52000000 cycles:   86196769 heartbeat IPC: 0.50930 cumulative IPC: 0.51098 (Simulation time: 0 hr 1 min 38 sec) 
Heartbeat CPU  0 instructions:   53000000 cycles:   88158688 heartbeat IPC: 0.50971 cumulative IPC: 0.51095 (Simulation time: 0 hr 1 min 40 sec) 
Heartbeat CPU  0 instructions:   54000001 cycles:   90121310 heartbeat IPC: 0.50952 cumulative IPC: 0.51092 (Simulation time: 0 hr 1 min 42 sec) 
Heartbeat CPU  0 instructions:   55000003 cycles:   92092010 heartbeat IPC: 0.50743 cumulative IPC: 0.51084 (Simulation time: 0 hr 1 min 44 sec) 
Heartbeat CPU  0 instructions:   56000000 cycles:   94065643 heartbeat IPC: 0.50668 cumulative IPC: 0.51075 (Simulation time: 0 hr 1 min 46 sec) 
Heartbeat CPU  0 instructions:   57000003 cycles:   96028384 heartbeat IPC: 0.50949 cumulative IPC: 0.51072 (Simulation time: 0 hr 1 min 48 sec) 
Heartbeat CPU  0 instructions:   58000001 cycles:   97987843 heartbeat IPC: 0.51034 cumulative IPC: 0.51072 (Simulation time: 0 hr 1 min 50 sec) 
Heartbeat CPU  0 instructions:   59000000 cycles:   99950242 heartbeat IPC: 0.50958 cumulative IPC: 0.51069 (Simulation time: 0 hr 1 min 52 sec) 
Heartbeat CPU  0 instructions:   60000000 cycles:  101908904 heartbeat IPC: 0.51055 cumulative IPC: 0.51069 (Simulation time: 0 hr 1 min 54 sec) 
Finished CPU 0 instructions: 50000001 cycles: 97906684 cumulative IPC: 0.51069 (Simulation time: 0 hr 1 min 54 sec) 

ChampSim completed all CPUs

[ROI Statistics]
Core_0_instructions 50000001
Core_0_cycles 97906684
Core_0_IPC 0.51069

Core_0_branch_prediction_accuracy 100.00000
Core_0_branch_MPKI 0.00000
Core_0_average_ROB_occupancy_at_mispredict -nan

Core_0_L1D_total_access 7763297
Core_0_L1D_total_hit 7062498
Core_0_L1D_total_miss 700799
Core_0_L1D_loads 4502431
Core_0_L1D_load_hit 3801632
Core_0_L1D_load_miss 700799
Core_0_L1D_RFOs 3260866
Core_0_L1D_RFO_hit 3260866
Core_0_L1D_RFO_miss 0
Core_0_L1D_prefetches 0
Core_0_L1D_prefetch_hit 0
Core_0_L1D_prefetch_miss 0
Core_0_L1D_writebacks 0
Core_0_L1D_writeback_hit 0
Core_0_L1D_writeback_miss 0
Core_0_L1D_prefetch_requested 0
Core_0_L1D_prefetch_dropped 0
Core_0_L1D_prefetch_issued 0
Core_0_L1D_prefetch_filled 0
Core_0_L1D_prefetch_useful 0
Core_0_L1D_prefetch_useless 0
Core_0_L1D_prefetch_late 0
Core_0_L1D_average_miss_latency 207.06209

Core_0_L1D_rq_access 14805739
Core_0_L1D_rq_forward 0
Core_0_L1D_rq_merged 9381730
Core_0_L1D_rq_to_cache 5424009
Core_0_L1D_rq_full 0

Core_0_L1D_wq_access 3260866
Core_0_L1D_wq_forward 0
Core_0_L1D_wq_merged 0
Core_0_L1D_wq_to_cache 3260866
Core_0_L1D_wq_full 0

Core_0_L1D_pq_access 0
Core_0_L1D_pq_forward 0
Core_0_L1D_pq_merged 0
Core_0_L1D_pq_to_cache 0
Core_0_L1D_pq_full 0

Core_0_L1D_acc_epochs 93189
Core_0_L1D_acc_level_0 93189
Core_0_L1D_acc_level_1 0
Core_0_L1D_acc_level_2 0
Core_0_L1D_acc_level_3 0
Core_0_L1D_acc_level_4 0
Core_0_L1D_acc_level_5 0
Core_0_L1D_acc_level_6 0
Core_0_L1D_acc_level_7 0
Core_0_L1D_acc_level_8 0
Core_0_L1D_acc_level_9 0

Core_0_L1I_total_access 10960557
Core_0_L1I_total_hit 10960557
Core_0_L1I_total_miss 0
Core_0_L1I_loads 10960557
Core_0_L1I_load_hit 10960557
Core_0_L1I_load_miss 0
Core_0_L1I_RFOs 0
Core_0_L1I_RFO_hit 0
Core_0_L1I_RFO_miss 0
Core_0_L1I_prefetches 0
Core_0_L1I_prefetch_hit 0
Core_0_L1I_prefetch_miss 0
Core_0_L1I_writebacks 0
Core_0_L1I_writeback_hit 0
Core_0_L1I_writeback_miss 0
Core_0_L1I_prefetch_requested 0
Core_0_L1I_prefetch_dropped 0
Core_0_L1I_prefetch_issued 0
Core_0_L1I_prefetch_filled 0
Core_0_L1I_prefetch_useful 0
Core_0_L1I_prefetch_useless 0
Core_0_L1I_prefetch_late 0
Core_0_L1I_average_miss_latency -nan

Core_0_L1I_rq_access 50000006
Core_0_L1I_rq_forward 0
Core_0_L1I_rq_merged 39039449
Core_0_L1I_rq_to_cache 10960557
Core_0_L1I_rq_full 0

Core_0_L1I_wq_access 0
Core_0_L1I_wq_forward 0
Core_0_L1I_wq_merged 0
Core_0_L1I_wq_to_cache 0
Core_0_L1I_wq_full 0

Core_0_L1I_pq_access 0
Core_0_L1I_pq_forward 0
Core_0_L1I_pq_merged 0
Core_0_L1I_pq_to_cache 0
Core_0_L1I_pq_full 0

Core_0_L1I_acc_epochs 93189
Core_0_L1I_acc_level_0 93189
Core_0_L1I_acc_level_1 0
Core_0_L1I_acc_level_2 0
Core_0_L1I_acc_level_3 0
Core_0_L1I_acc_level_4 0
Core_0_L1I_acc_level_5 0
Core_0_L1I_acc_level_6 0
Core_0_L1I_acc_level_7 0
Core_0_L1I_acc_level_8 0
Core_0_L1I_acc_level_9 0

Core_0_L2C_total_access 872413
Core_0_L2C_total_hit 171614
Core_0_L2C_total_miss 700799
Core_0_L2C_loads 700799
Core_0_L2C_load_hit 0
Core_0_L2C_load_miss 700799
Core_0_L2C_RFOs 0
Core_0_L2C_RFO_hit 0
Core_0_L2C_RFO_miss 0
Core_0_L2C_prefetches 0
Core_0_L2C_prefetch_hit 0
Core_0_L2C_prefetch_miss 0
Core_0_L2C_writebacks 171614
Core_0_L2C_writeback_hit 171614
Core_0_L2C_writeback_miss 0
Core_0_L2C_prefetch_requested 0
Core_0_L2C_prefetch_dropped 0
Core_0_L2C_prefetch_issued 0
Core_0_L2C_prefetch_filled 0
Core_0_L2C_prefetch_useful 0
Core_0_L2C_prefetch_useless 0
Core_0_L2C_prefetch_late 0
Core_0_L2C_average_miss_latency 191.11688

Core_0_L2C_rq_access 700799
Core_0_L2C_rq_forward 0
Core_0_L2C_rq_merged 0
Core_0_L2C_rq_to_cache 700799
Core_0_L2C_rq_full 0

Core_0_L2C_wq_access 171614
Core_0_L2C_wq_forward 0
Core_0_L2C_wq_merged 0
Core_0_L2C_wq_to_cache 171614
Core_0_L2C_wq_full 0

Core_0_L2C_pq_access 0
Core_0_L2C_pq_forward 0
Core_0_L2C_pq_merged 0
Core_0_L2C_pq_to_cache 0
Core_0_L2C_pq_full 0

Core_0_L2C_acc_epochs 93189
Core_0_L2C_acc_level_0 93189
Core_0_L2C_acc_level_1 0
Core_0_L2C_acc_level_2 0
Core_0_L2C_acc_level_3 0
Core_0_L2C_acc_level_4 0
Core_0_L2C_acc_level_5 0
Core_0_L2C_acc_level_6 0
Core_0_L2C_acc_level_7 0
Core_0_L2C_acc_level_8 0
Core_0_L2C_acc_level_9 0

Core_0_LLC_total_access 872496
Core_0_LLC_total_hit 5810
Core_0_LLC_total_miss 866686
Core_0_LLC_loads 700799
Core_0_LLC_load_hit 0
Core_0_LLC_load_miss 700799
Core_0_LLC_RFOs 0
Core_0_LLC_RFO_hit 0
Core_0_LLC_RFO_miss 0
Core_0_LLC_prefetches 0
Core_0_LLC_prefetch_hit 0
Core_0_LLC_prefetch_miss 0
Core_0_LLC_writebacks 171697
Core_0_LLC_writeback_hit 5810
Core_0_LLC_writeback_miss 165887
Core_0_LLC_prefetch_requested 0
Core_0_LLC_prefetch_dropped 0
Core_0_LLC_prefetch_issued 0
Core_0_LLC_prefetch_filled 0
Core_0_LLC_prefetch_useful 0
Core_0_LLC_prefetch_useless 0
Core_0_LLC_prefetch_late 0
Core_0_LLC_average_miss_latency 129.26908

Core_0_LLC_rq_access 700799
Core_0_LLC_rq_forward 0
Core_0_LLC_rq_merged 0
Core_0_LLC_rq_to_cache 700799
Core_0_LLC_rq_full 0

Core_0_LLC_wq_access 171697
Core_0_LLC_wq_forward 0
Core_0_LLC_wq_merged 0
Core_0_LLC_wq_to_cache 171697
Core_0_LLC_wq_full 0

Core_0_LLC_pq_access 0
Core_0_LLC_pq_forward 0
Core_0_LLC_pq_merged 0
Core_0_LLC_pq_to_cache 0
Core_0_LLC_pq_full 0

Core_0_LLC_acc_epochs 99521
Core_0_LLC_acc_level_0 99521
Core_0_LLC_acc_level_1 0
Core_0_LLC_acc_level_2 0
Core_0_LLC_acc_level_3 0
Core_0_LLC_acc_level_4 0
Core_0_LLC_acc_level_5 0
Core_0_LLC_acc_level_6 0
Core_0_LLC_acc_level_7 0
Core_0_LLC_acc_level_8 0
Core_0_LLC_acc_level_9 0

Core_0_major_page_fault 0
Core_0_minor_page_fault 78592

Channel_0_RQ_row_buffer_hit 275227
Channel_0_RQ_row_buffer_miss 425572
Channel_0_WQ_row_buffer_hit 98593
Channel_0_WQ_row_buffer_miss 68282
Channel_0_WQ_full 0
Channel_0_dbus_congested 228902

avg_congested_cycle 10

DRAM_bw_pochs 398082
DRAM_bw_level_0 317759
DRAM_bw_level_1 80323
DRAM_bw_level_2 0
DRAM_bw_level_3 0
