*************************************************
   ChampSim Multicore Out-of-Order Simulator
   Last compiled: Apr  3 2025 20:54:34
*************************************************
parsing config file: /home/zir/Pythia/config/nopref.ini

trace_0 /home/zir/ChampSim/ML-DPC/ChampSimTraces/spec06/433.milc-s1.trace.gz
adding L2C_PREFETCHER: NONE
Initialize SHIP state
warmup_instructions 10000000
simulation_instructions 50000000
champsim_seed 164
measure_ipc 0
measure_ipc_epoch 1000
measure_dram_bw 1
measure_dram_bw_epoch 256
measure_cache_acc 1
measure_cache_acc_epoch 1024
l1d_perfect 0
l2c_perfect 0
llc_perfect 0
l1d_semi_perfect 0
l2c_semi_perfect 0
llc_semi_perfect 0
semi_perfect_cache_page_buffer_size 64

num_cpus 1
cpu_freq 4000
dram_io_freq 2400
page_size 4096
block_size 64
max_read_per_cycle 8
max_fill_per_cycle 1
dram_channels 1
log2_dram_channels 0
dram_ranks 1
dram_banks 8
dram_rows 65536
dram_columns 128
dram_row_size 8
dram_size 4096
dram_pages 1048576

fetch_width 6
decode_width 6
exec_width 4
lq_width 2
sq_width 2
retire_width 4
scheduler_size 128
branch_mispredict_penalty 20
rob_size 256
lq_size 72
sq_size 56
num_instr_destinations_sparc 4
num_instr_destinations 2
num_instr_sources 4

itlb_set 16
itlb_way 8
itlb_rq_size 16
itlb_wq_size 16
itlb_pq_size 0
itlb_mshr_size 8
itlb_latency 1

dtlb_set 16
dtlb_way 4
dtlb_rq_size 16
dtlb_wq_size 16
dtlb_pq_size 0
dtlb_mshr_size 8
dtlb_latency 1

stlb_set 128
stlb_way 12
stlb_rq_size 32
stlb_wq_size 32
stlb_pq_size 0
stlb_mshr_size 16
stlb_latency 8

l1i_size 32
l1i_set 64
l1i_way 8
l1i_rq_size 64
l1i_wq_size 64
l1i_pq_size 8
l1i_mshr_size 8
l1i_latency 1

l1d_size 32
l1d_set 64
l1d_way 8
l1d_rq_size 64
l1d_wq_size 64
l1d_pq_size 8
l1d_mshr_size 16
l1d_latency 4

l2c_size 256
l2c_set 512
l2c_way 8
l2c_rq_size 32
l2c_wq_size 32
l2c_pq_size 32
l2c_mshr_size 32
l2c_latency 10

llc_size 2048
llc_set 2048
llc_way 16
llc_rq_size 32
llc_wq_size 32
llc_pq_size 32
llc_mshr_size 64
llc_latency 20

dram_channel_width 8
dram_wq_size 64
dram_rq_size 64
tRP 15
tRCD 15
tCAS 12.5
dram_dbus_turn_around_time 30
dram_write_high_wm 56
dram_write_low_wm 48
min_dram_writes_per_switch 16
dram_mtps 2400
dram_dbus_return_time 13


Heartbeat CPU  0 instructions:    1000002 cycles:     406544 heartbeat IPC: 2.45976 cumulative IPC: 2.45976 (Simulation time: 0 hr 0 min 2 sec) 
Heartbeat CPU  0 instructions:    2000000 cycles:     841915 heartbeat IPC: 2.29689 cumulative IPC: 2.37554 (Simulation time: 0 hr 0 min 3 sec) 
Heartbeat CPU  0 instructions:    3000001 cycles:    1334064 heartbeat IPC: 2.03191 cumulative IPC: 2.24877 (Simulation time: 0 hr 0 min 5 sec) 
Heartbeat CPU  0 instructions:    4000000 cycles:    1826304 heartbeat IPC: 2.03153 cumulative IPC: 2.19022 (Simulation time: 0 hr 0 min 7 sec) 
Heartbeat CPU  0 instructions:    5000002 cycles:    2284165 heartbeat IPC: 2.18407 cumulative IPC: 2.18898 (Simulation time: 0 hr 0 min 9 sec) 
Heartbeat CPU  0 instructions:    6000003 cycles:    2694009 heartbeat IPC: 2.43996 cumulative IPC: 2.22717 (Simulation time: 0 hr 0 min 10 sec) 
Heartbeat CPU  0 instructions:    7000002 cycles:    3103790 heartbeat IPC: 2.44033 cumulative IPC: 2.25531 (Simulation time: 0 hr 0 min 12 sec) 
Heartbeat CPU  0 instructions:    8000000 cycles:    3513634 heartbeat IPC: 2.43995 cumulative IPC: 2.27684 (Simulation time: 0 hr 0 min 14 sec) 
Heartbeat CPU  0 instructions:    9000003 cycles:    3923444 heartbeat IPC: 2.44016 cumulative IPC: 2.29390 (Simulation time: 0 hr 0 min 15 sec) 
Heartbeat CPU  0 instructions:   10000000 cycles:    4333263 heartbeat IPC: 2.44009 cumulative IPC: 2.30773 (Simulation time: 0 hr 0 min 17 sec) 

Warmup complete CPU  0 instructions:   10000004 cycles:    4333264 (Simulation time: 0 hr 0 min 17 sec) 

Heartbeat CPU  0 instructions:   11000002 cycles:    6298394 heartbeat IPC: 0.50887 cumulative IPC: 0.50887 (Simulation time: 0 hr 0 min 19 sec) 
Heartbeat CPU  0 instructions:   12000000 cycles:    8271455 heartbeat IPC: 0.50683 cumulative IPC: 0.50785 (Simulation time: 0 hr 0 min 21 sec) 
Heartbeat CPU  0 instructions:   13000003 cycles:   10228876 heartbeat IPC: 0.51088 cumulative IPC: 0.50885 (Simulation time: 0 hr 0 min 24 sec) 
Heartbeat CPU  0 instructions:   14000002 cycles:   12207986 heartbeat IPC: 0.50528 cumulative IPC: 0.50795 (Simulation time: 0 hr 0 min 26 sec) 
Heartbeat CPU  0 instructions:   15000001 cycles:   14170694 heartbeat IPC: 0.50950 cumulative IPC: 0.50826 (Simulation time: 0 hr 0 min 28 sec) 
Heartbeat CPU  0 instructions:   16000000 cycles:   16130977 heartbeat IPC: 0.51013 cumulative IPC: 0.50857 (Simulation time: 0 hr 0 min 30 sec) 
Heartbeat CPU  0 instructions:   17000002 cycles:   18104289 heartbeat IPC: 0.50676 cumulative IPC: 0.50831 (Simulation time: 0 hr 0 min 33 sec) 
Heartbeat CPU  0 instructions:   18000000 cycles:   20077666 heartbeat IPC: 0.50674 cumulative IPC: 0.50812 (Simulation time: 0 hr 0 min 35 sec) 
Heartbeat CPU  0 instructions:   19000002 cycles:   22043070 heartbeat IPC: 0.50880 cumulative IPC: 0.50819 (Simulation time: 0 hr 0 min 37 sec) 
Heartbeat CPU  0 instructions:   20000000 cycles:   24003390 heartbeat IPC: 0.51012 cumulative IPC: 0.50838 (Simulation time: 0 hr 0 min 39 sec) 
Heartbeat CPU  0 instructions:   21000002 cycles:   25971781 heartbeat IPC: 0.50803 cumulative IPC: 0.50835 (Simulation time: 0 hr 0 min 41 sec) 
Heartbeat CPU  0 instructions:   22000000 cycles:   27955427 heartbeat IPC: 0.50412 cumulative IPC: 0.50800 (Simulation time: 0 hr 0 min 44 sec) 
Heartbeat CPU  0 instructions:   23000002 cycles:   29928731 heartbeat IPC: 0.50677 cumulative IPC: 0.50790 (Simulation time: 0 hr 0 min 46 sec) 
Heartbeat CPU  0 instructions:   24000000 cycles:   31904214 heartbeat IPC: 0.50620 cumulative IPC: 0.50778 (Simulation time: 0 hr 0 min 48 sec) 
Heartbeat CPU  0 instructions:   25000002 cycles:   33851830 heartbeat IPC: 0.51345 cumulative IPC: 0.50815 (Simulation time: 0 hr 0 min 50 sec) 
Heartbeat CPU  0 instructions:   26000002 cycles:   35827725 heartbeat IPC: 0.50610 cumulative IPC: 0.50803 (Simulation time: 0 hr 0 min 53 sec) 
Heartbeat CPU  0 instructions:   27000002 cycles:   37789695 heartbeat IPC: 0.50969 cumulative IPC: 0.50812 (Simulation time: 0 hr 0 min 55 sec) 
Heartbeat CPU  0 instructions:   28000000 cycles:   39746129 heartbeat IPC: 0.51113 cumulative IPC: 0.50829 (Simulation time: 0 hr 0 min 57 sec) 
Heartbeat CPU  0 instructions:   29000001 cycles:   41738822 heartbeat IPC: 0.50183 cumulative IPC: 0.50795 (Simulation time: 0 hr 0 min 59 sec) 
Heartbeat CPU  0 instructions:   30000000 cycles:   43695871 heartbeat IPC: 0.51097 cumulative IPC: 0.50810 (Simulation time: 0 hr 1 min 2 sec) 
Heartbeat CPU  0 instructions:   31000000 cycles:   45663111 heartbeat IPC: 0.50833 cumulative IPC: 0.50811 (Simulation time: 0 hr 1 min 4 sec) 
Heartbeat CPU  0 instructions:   32000000 cycles:   47640379 heartbeat IPC: 0.50575 cumulative IPC: 0.50800 (Simulation time: 0 hr 1 min 6 sec) 
Heartbeat CPU  0 instructions:   33000000 cycles:   49615005 heartbeat IPC: 0.50643 cumulative IPC: 0.50793 (Simulation time: 0 hr 1 min 8 sec) 
Heartbeat CPU  0 instructions:   34000000 cycles:   51580662 heartbeat IPC: 0.50874 cumulative IPC: 0.50796 (Simulation time: 0 hr 1 min 11 sec) 
Heartbeat CPU  0 instructions:   35000002 cycles:   53549940 heartbeat IPC: 0.50780 cumulative IPC: 0.50796 (Simulation time: 0 hr 1 min 13 sec) 
Heartbeat CPU  0 instructions:   36000000 cycles:   55527039 heartbeat IPC: 0.50579 cumulative IPC: 0.50787 (Simulation time: 0 hr 1 min 15 sec) 
Heartbeat CPU  0 instructions:   37000000 cycles:   57511524 heartbeat IPC: 0.50391 cumulative IPC: 0.50773 (Simulation time: 0 hr 1 min 17 sec) 
Heartbeat CPU  0 instructions:   38000001 cycles:   59489837 heartbeat IPC: 0.50548 cumulative IPC: 0.50765 (Simulation time: 0 hr 1 min 20 sec) 
Heartbeat CPU  0 instructions:   39000003 cycles:   61460519 heartbeat IPC: 0.50744 cumulative IPC: 0.50764 (Simulation time: 0 hr 1 min 22 sec) 
Heartbeat CPU  0 instructions:   40000000 cycles:   63423335 heartbeat IPC: 0.50947 cumulative IPC: 0.50770 (Simulation time: 0 hr 1 min 24 sec) 
Heartbeat CPU  0 instructions:   41000002 cycles:   65386484 heartbeat IPC: 0.50939 cumulative IPC: 0.50775 (Simulation time: 0 hr 1 min 26 sec) 
Heartbeat CPU  0 instructions:   42000003 cycles:   67351046 heartbeat IPC: 0.50902 cumulative IPC: 0.50779 (Simulation time: 0 hr 1 min 28 sec) 
Heartbeat CPU  0 instructions:   43000000 cycles:   69314279 heartbeat IPC: 0.50936 cumulative IPC: 0.50784 (Simulation time: 0 hr 1 min 31 sec) 
Heartbeat CPU  0 instructions:   44000000 cycles:   71286857 heartbeat IPC: 0.50695 cumulative IPC: 0.50781 (Simulation time: 0 hr 1 min 33 sec) 
Heartbeat CPU  0 instructions:   45000000 cycles:   73258716 heartbeat IPC: 0.50714 cumulative IPC: 0.50779 (Simulation time: 0 hr 1 min 35 sec) 
Heartbeat CPU  0 instructions:   46000000 cycles:   75232411 heartbeat IPC: 0.50666 cumulative IPC: 0.50776 (Simulation time: 0 hr 1 min 37 sec) 
Heartbeat CPU  0 instructions:   47000002 cycles:   77214903 heartbeat IPC: 0.50442 cumulative IPC: 0.50767 (Simulation time: 0 hr 1 min 40 sec) 
Heartbeat CPU  0 instructions:   48000000 cycles:   79181878 heartbeat IPC: 0.50839 cumulative IPC: 0.50769 (Simulation time: 0 hr 1 min 42 sec) 
Heartbeat CPU  0 instructions:   49000001 cycles:   81142759 heartbeat IPC: 0.50998 cumulative IPC: 0.50775 (Simulation time: 0 hr 1 min 44 sec) 
Heartbeat CPU  0 instructions:   50000002 cycles:   83114413 heartbeat IPC: 0.50719 cumulative IPC: 0.50774 (Simulation time: 0 hr 1 min 46 sec) 
Heartbeat CPU  0 instructions:   51000002 cycles:   85088597 heartbeat IPC: 0.50654 cumulative IPC: 0.50771 (Simulation time: 0 hr 1 min 49 sec) 
Heartbeat CPU  0 instructions:   52000000 cycles:   88878606 heartbeat IPC: 0.26385 cumulative IPC: 0.49677 (Simulation time: 0 hr 1 min 52 sec) 
Heartbeat CPU  0 instructions:   53000003 cycles:   93754618 heartbeat IPC: 0.20509 cumulative IPC: 0.48087 (Simulation time: 0 hr 1 min 55 sec) 
Heartbeat CPU  0 instructions:   54000001 cycles:   98571966 heartbeat IPC: 0.20758 cumulative IPC: 0.46690 (Simulation time: 0 hr 1 min 59 sec) 
Heartbeat CPU  0 instructions:   55000002 cycles:  103565835 heartbeat IPC: 0.20025 cumulative IPC: 0.45348 (Simulation time: 0 hr 2 min 3 sec) 
Heartbeat CPU  0 instructions:   56000000 cycles:  108575413 heartbeat IPC: 0.19962 cumulative IPC: 0.44128 (Simulation time: 0 hr 2 min 6 sec) 
Heartbeat CPU  0 instructions:   57000002 cycles:  113557855 heartbeat IPC: 0.20071 cumulative IPC: 0.43031 (Simulation time: 0 hr 2 min 10 sec) 
Heartbeat CPU  0 instructions:   58000003 cycles:  118562912 heartbeat IPC: 0.19980 cumulative IPC: 0.42021 (Simulation time: 0 hr 2 min 14 sec) 
Heartbeat CPU  0 instructions:   59000001 cycles:  121317985 heartbeat IPC: 0.36297 cumulative IPC: 0.41886 (Simulation time: 0 hr 2 min 16 sec) 
Heartbeat CPU  0 instructions:   60000000 cycles:  123499884 heartbeat IPC: 0.45832 cumulative IPC: 0.41958 (Simulation time: 0 hr 2 min 19 sec) 
Finished CPU 0 instructions: 50000001 cycles: 119166636 cumulative IPC: 0.41958 (Simulation time: 0 hr 2 min 19 sec) 

ChampSim completed all CPUs

[ROI Statistics]
Core_0_instructions 50000001
Core_0_cycles 119166636
Core_0_IPC 0.41958

Core_0_branch_prediction_accuracy 99.99810
Core_0_branch_MPKI 0.00032
Core_0_average_ROB_occupancy_at_mispredict 97.43750

Core_0_L1D_total_access 15719291
Core_0_L1D_total_hit 14814658
Core_0_L1D_total_miss 904633
Core_0_L1D_loads 4556196
Core_0_L1D_load_hit 3651568
Core_0_L1D_load_miss 904628
Core_0_L1D_RFOs 11163095
Core_0_L1D_RFO_hit 11163090
Core_0_L1D_RFO_miss 5
Core_0_L1D_prefetches 0
Core_0_L1D_prefetch_hit 0
Core_0_L1D_prefetch_miss 0
Core_0_L1D_writebacks 0
Core_0_L1D_writeback_hit 0
Core_0_L1D_writeback_miss 0
Core_0_L1D_prefetch_requested 0
Core_0_L1D_prefetch_dropped 0
Core_0_L1D_prefetch_issued 0
Core_0_L1D_prefetch_filled 0
Core_0_L1D_prefetch_useful 0
Core_0_L1D_prefetch_useless 0
Core_0_L1D_prefetch_late 0
Core_0_L1D_average_miss_latency 212.66916

Core_0_L1D_rq_access 11460497
Core_0_L1D_rq_forward 0
Core_0_L1D_rq_merged 6595776
Core_0_L1D_rq_to_cache 4863895
Core_0_L1D_rq_full 0

Core_0_L1D_wq_access 11163108
Core_0_L1D_wq_forward 826
Core_0_L1D_wq_merged 0
Core_0_L1D_wq_to_cache 11163108
Core_0_L1D_wq_full 0

Core_0_L1D_pq_access 0
Core_0_L1D_pq_forward 0
Core_0_L1D_pq_merged 0
Core_0_L1D_pq_to_cache 0
Core_0_L1D_pq_full 0

Core_0_L1D_acc_epochs 112769
Core_0_L1D_acc_level_0 112769
Core_0_L1D_acc_level_1 0
Core_0_L1D_acc_level_2 0
Core_0_L1D_acc_level_3 0
Core_0_L1D_acc_level_4 0
Core_0_L1D_acc_level_5 0
Core_0_L1D_acc_level_6 0
Core_0_L1D_acc_level_7 0
Core_0_L1D_acc_level_8 0
Core_0_L1D_acc_level_9 0

Core_0_L1I_total_access 11995129
Core_0_L1I_total_hit 11995117
Core_0_L1I_total_miss 12
Core_0_L1I_loads 11995129
Core_0_L1I_load_hit 11995117
Core_0_L1I_load_miss 12
Core_0_L1I_RFOs 0
Core_0_L1I_RFO_hit 0
Core_0_L1I_RFO_miss 0
Core_0_L1I_prefetches 0
Core_0_L1I_prefetch_hit 0
Core_0_L1I_prefetch_miss 0
Core_0_L1I_writebacks 0
Core_0_L1I_writeback_hit 0
Core_0_L1I_writeback_miss 0
Core_0_L1I_prefetch_requested 0
Core_0_L1I_prefetch_dropped 0
Core_0_L1I_prefetch_issued 0
Core_0_L1I_prefetch_filled 0
Core_0_L1I_prefetch_useful 0
Core_0_L1I_prefetch_useless 0
Core_0_L1I_prefetch_late 0
Core_0_L1I_average_miss_latency 244.41667

Core_0_L1I_rq_access 50000005
Core_0_L1I_rq_forward 0
Core_0_L1I_rq_merged 38004871
Core_0_L1I_rq_to_cache 11995134
Core_0_L1I_rq_full 0

Core_0_L1I_wq_access 0
Core_0_L1I_wq_forward 0
Core_0_L1I_wq_merged 0
Core_0_L1I_wq_to_cache 0
Core_0_L1I_wq_full 0

Core_0_L1I_pq_access 0
Core_0_L1I_pq_forward 0
Core_0_L1I_pq_merged 0
Core_0_L1I_pq_to_cache 0
Core_0_L1I_pq_full 0

Core_0_L1I_acc_epochs 112769
Core_0_L1I_acc_level_0 112769
Core_0_L1I_acc_level_1 0
Core_0_L1I_acc_level_2 0
Core_0_L1I_acc_level_3 0
Core_0_L1I_acc_level_4 0
Core_0_L1I_acc_level_5 0
Core_0_L1I_acc_level_6 0
Core_0_L1I_acc_level_7 0
Core_0_L1I_acc_level_8 0
Core_0_L1I_acc_level_9 0

Core_0_L2C_total_access 1320035
Core_0_L2C_total_hit 415384
Core_0_L2C_total_miss 904651
Core_0_L2C_loads 904640
Core_0_L2C_load_hit 0
Core_0_L2C_load_miss 904640
Core_0_L2C_RFOs 5
Core_0_L2C_RFO_hit 0
Core_0_L2C_RFO_miss 5
Core_0_L2C_prefetches 0
Core_0_L2C_prefetch_hit 0
Core_0_L2C_prefetch_miss 0
Core_0_L2C_writebacks 415390
Core_0_L2C_writeback_hit 415384
Core_0_L2C_writeback_miss 6
Core_0_L2C_prefetch_requested 0
Core_0_L2C_prefetch_dropped 0
Core_0_L2C_prefetch_issued 0
Core_0_L2C_prefetch_filled 0
Core_0_L2C_prefetch_useful 0
Core_0_L2C_prefetch_useless 0
Core_0_L2C_prefetch_late 0
Core_0_L2C_average_miss_latency 198.50362

Core_0_L2C_rq_access 904644
Core_0_L2C_rq_forward 0
Core_0_L2C_rq_merged 0
Core_0_L2C_rq_to_cache 904644
Core_0_L2C_rq_full 0

Core_0_L2C_wq_access 415390
Core_0_L2C_wq_forward 0
Core_0_L2C_wq_merged 0
Core_0_L2C_wq_to_cache 415390
Core_0_L2C_wq_full 0

Core_0_L2C_pq_access 0
Core_0_L2C_pq_forward 0
Core_0_L2C_pq_merged 0
Core_0_L2C_pq_to_cache 0
Core_0_L2C_pq_full 0

Core_0_L2C_acc_epochs 112769
Core_0_L2C_acc_level_0 112769
Core_0_L2C_acc_level_1 0
Core_0_L2C_acc_level_2 0
Core_0_L2C_acc_level_3 0
Core_0_L2C_acc_level_4 0
Core_0_L2C_acc_level_5 0
Core_0_L2C_acc_level_6 0
Core_0_L2C_acc_level_7 0
Core_0_L2C_acc_level_8 0
Core_0_L2C_acc_level_9 0

Core_0_LLC_total_access 1320039
Core_0_LLC_total_hit 12720
Core_0_LLC_total_miss 1307319
Core_0_LLC_loads 904640
Core_0_LLC_load_hit 1
Core_0_LLC_load_miss 904639
Core_0_LLC_RFOs 5
Core_0_LLC_RFO_hit 0
Core_0_LLC_RFO_miss 5
Core_0_LLC_prefetches 0
Core_0_LLC_prefetch_hit 0
Core_0_LLC_prefetch_miss 0
Core_0_LLC_writebacks 415394
Core_0_LLC_writeback_hit 12719
Core_0_LLC_writeback_miss 402675
Core_0_LLC_prefetch_requested 0
Core_0_LLC_prefetch_dropped 0
Core_0_LLC_prefetch_issued 0
Core_0_LLC_prefetch_filled 0
Core_0_LLC_prefetch_useful 0
Core_0_LLC_prefetch_useless 0
Core_0_LLC_prefetch_late 0
Core_0_LLC_average_miss_latency 116.57900

Core_0_LLC_rq_access 904644
Core_0_LLC_rq_forward 0
Core_0_LLC_rq_merged 0
Core_0_LLC_rq_to_cache 904644
Core_0_LLC_rq_full 0

Core_0_LLC_wq_access 415394
Core_0_LLC_wq_forward 0
Core_0_LLC_wq_merged 0
Core_0_LLC_wq_to_cache 415394
Core_0_LLC_wq_full 0

Core_0_LLC_pq_access 0
Core_0_LLC_pq_forward 0
Core_0_LLC_pq_merged 0
Core_0_LLC_pq_to_cache 0
Core_0_LLC_pq_full 0

Core_0_LLC_acc_epochs 120606
Core_0_LLC_acc_level_0 120606
Core_0_LLC_acc_level_1 0
Core_0_LLC_acc_level_2 0
Core_0_LLC_acc_level_3 0
Core_0_LLC_acc_level_4 0
Core_0_LLC_acc_level_5 0
Core_0_LLC_acc_level_6 0
Core_0_LLC_acc_level_7 0
Core_0_LLC_acc_level_8 0
Core_0_LLC_acc_level_9 0

Core_0_major_page_fault 0
Core_0_minor_page_fault 89944

Channel_0_RQ_row_buffer_hit 253307
Channel_0_RQ_row_buffer_miss 651337
Channel_0_WQ_row_buffer_hit 241657
Channel_0_WQ_row_buffer_miss 169046
Channel_0_WQ_full 0
Channel_0_dbus_congested 428842

avg_congested_cycle 10

DRAM_bw_pochs 482422
DRAM_bw_level_0 409613
DRAM_bw_level_1 72809
DRAM_bw_level_2 0
DRAM_bw_level_3 0
