*************************************************
   ChampSim Multicore Out-of-Order Simulator
   Last compiled: Apr  3 2025 20:54:34
*************************************************
parsing config file: /home/zir/Pythia/config/nopref.ini

trace_0 /home/zir/ChampSim/ML-DPC/ChampSimTraces/spec17/649.fotonik3d-s3.trace.xz
adding L2C_PREFETCHER: NONE
Initialize SHIP state
warmup_instructions 10000000
simulation_instructions 50000000
champsim_seed 166
measure_ipc 0
measure_ipc_epoch 1000
measure_dram_bw 1
measure_dram_bw_epoch 256
measure_cache_acc 1
measure_cache_acc_epoch 1024
l1d_perfect 0
l2c_perfect 0
llc_perfect 0
l1d_semi_perfect 0
l2c_semi_perfect 0
llc_semi_perfect 0
semi_perfect_cache_page_buffer_size 64

num_cpus 1
cpu_freq 4000
dram_io_freq 2400
page_size 4096
block_size 64
max_read_per_cycle 8
max_fill_per_cycle 1
dram_channels 1
log2_dram_channels 0
dram_ranks 1
dram_banks 8
dram_rows 65536
dram_columns 128
dram_row_size 8
dram_size 4096
dram_pages 1048576

fetch_width 6
decode_width 6
exec_width 4
lq_width 2
sq_width 2
retire_width 4
scheduler_size 128
branch_mispredict_penalty 20
rob_size 256
lq_size 72
sq_size 56
num_instr_destinations_sparc 4
num_instr_destinations 2
num_instr_sources 4

itlb_set 16
itlb_way 8
itlb_rq_size 16
itlb_wq_size 16
itlb_pq_size 0
itlb_mshr_size 8
itlb_latency 1

dtlb_set 16
dtlb_way 4
dtlb_rq_size 16
dtlb_wq_size 16
dtlb_pq_size 0
dtlb_mshr_size 8
dtlb_latency 1

stlb_set 128
stlb_way 12
stlb_rq_size 32
stlb_wq_size 32
stlb_pq_size 0
stlb_mshr_size 16
stlb_latency 8

l1i_size 32
l1i_set 64
l1i_way 8
l1i_rq_size 64
l1i_wq_size 64
l1i_pq_size 8
l1i_mshr_size 8
l1i_latency 1

l1d_size 32
l1d_set 64
l1d_way 8
l1d_rq_size 64
l1d_wq_size 64
l1d_pq_size 8
l1d_mshr_size 16
l1d_latency 4

l2c_size 256
l2c_set 512
l2c_way 8
l2c_rq_size 32
l2c_wq_size 32
l2c_pq_size 32
l2c_mshr_size 32
l2c_latency 10

llc_size 2048
llc_set 2048
llc_way 16
llc_rq_size 32
llc_wq_size 32
llc_pq_size 32
llc_mshr_size 64
llc_latency 20

dram_channel_width 8
dram_wq_size 64
dram_rq_size 64
tRP 15
tRCD 15
tCAS 12.5
dram_dbus_turn_around_time 30
dram_write_high_wm 56
dram_write_low_wm 48
min_dram_writes_per_switch 16
dram_mtps 2400
dram_dbus_return_time 13


Heartbeat CPU  0 instructions:    1000001 cycles:     429648 heartbeat IPC: 2.32749 cumulative IPC: 2.32749 (Simulation time: 0 hr 0 min 2 sec) 
Heartbeat CPU  0 instructions:    2000002 cycles:     858881 heartbeat IPC: 2.32974 cumulative IPC: 2.32861 (Simulation time: 0 hr 0 min 4 sec) 
Heartbeat CPU  0 instructions:    3000003 cycles:    1287792 heartbeat IPC: 2.33149 cumulative IPC: 2.32957 (Simulation time: 0 hr 0 min 5 sec) 
Heartbeat CPU  0 instructions:    4000000 cycles:    1716703 heartbeat IPC: 2.33148 cumulative IPC: 2.33005 (Simulation time: 0 hr 0 min 7 sec) 
Heartbeat CPU  0 instructions:    5000000 cycles:    2145619 heartbeat IPC: 2.33146 cumulative IPC: 2.33033 (Simulation time: 0 hr 0 min 9 sec) 
Heartbeat CPU  0 instructions:    6000003 cycles:    2574612 heartbeat IPC: 2.33105 cumulative IPC: 2.33045 (Simulation time: 0 hr 0 min 11 sec) 
Heartbeat CPU  0 instructions:    7000003 cycles:    3003618 heartbeat IPC: 2.33097 cumulative IPC: 2.33052 (Simulation time: 0 hr 0 min 12 sec) 
Heartbeat CPU  0 instructions:    8000000 cycles:    3432680 heartbeat IPC: 2.33066 cumulative IPC: 2.33054 (Simulation time: 0 hr 0 min 14 sec) 
Heartbeat CPU  0 instructions:    9000003 cycles:    3861685 heartbeat IPC: 2.33098 cumulative IPC: 2.33059 (Simulation time: 0 hr 0 min 16 sec) 
Heartbeat CPU  0 instructions:   10000003 cycles:    4290683 heartbeat IPC: 2.33101 cumulative IPC: 2.33063 (Simulation time: 0 hr 0 min 17 sec) 

Warmup complete CPU  0 instructions:   10000003 cycles:    4290683 (Simulation time: 0 hr 0 min 17 sec) 

Heartbeat CPU  0 instructions:   11000002 cycles:    6129334 heartbeat IPC: 0.54388 cumulative IPC: 0.54388 (Simulation time: 0 hr 0 min 20 sec) 
Heartbeat CPU  0 instructions:   12000000 cycles:    7978918 heartbeat IPC: 0.54066 cumulative IPC: 0.54226 (Simulation time: 0 hr 0 min 22 sec) 
Heartbeat CPU  0 instructions:   13000003 cycles:    9842228 heartbeat IPC: 0.53668 cumulative IPC: 0.54039 (Simulation time: 0 hr 0 min 24 sec) 
Heartbeat CPU  0 instructions:   14000002 cycles:   11692582 heartbeat IPC: 0.54044 cumulative IPC: 0.54040 (Simulation time: 0 hr 0 min 27 sec) 
Heartbeat CPU  0 instructions:   15000000 cycles:   13527622 heartbeat IPC: 0.54495 cumulative IPC: 0.54130 (Simulation time: 0 hr 0 min 29 sec) 
Heartbeat CPU  0 instructions:   16000000 cycles:   15349025 heartbeat IPC: 0.54903 cumulative IPC: 0.54258 (Simulation time: 0 hr 0 min 31 sec) 
Heartbeat CPU  0 instructions:   17000000 cycles:   17249719 heartbeat IPC: 0.52612 cumulative IPC: 0.54016 (Simulation time: 0 hr 0 min 34 sec) 
Heartbeat CPU  0 instructions:   18000003 cycles:   19176320 heartbeat IPC: 0.51905 cumulative IPC: 0.53743 (Simulation time: 0 hr 0 min 36 sec) 
Heartbeat CPU  0 instructions:   19000001 cycles:   21179661 heartbeat IPC: 0.49917 cumulative IPC: 0.53289 (Simulation time: 0 hr 0 min 39 sec) 
Heartbeat CPU  0 instructions:   20000000 cycles:   23205529 heartbeat IPC: 0.49362 cumulative IPC: 0.52869 (Simulation time: 0 hr 0 min 41 sec) 
Heartbeat CPU  0 instructions:   21000003 cycles:   25228783 heartbeat IPC: 0.49425 cumulative IPC: 0.52536 (Simulation time: 0 hr 0 min 43 sec) 
Heartbeat CPU  0 instructions:   22000000 cycles:   27209798 heartbeat IPC: 0.50479 cumulative IPC: 0.52358 (Simulation time: 0 hr 0 min 46 sec) 
Heartbeat CPU  0 instructions:   23000002 cycles:   29202229 heartbeat IPC: 0.50190 cumulative IPC: 0.52185 (Simulation time: 0 hr 0 min 48 sec) 
Heartbeat CPU  0 instructions:   24000000 cycles:   31181335 heartbeat IPC: 0.50528 cumulative IPC: 0.52063 (Simulation time: 0 hr 0 min 51 sec) 
Heartbeat CPU  0 instructions:   25000001 cycles:   33164529 heartbeat IPC: 0.50424 cumulative IPC: 0.51950 (Simulation time: 0 hr 0 min 53 sec) 
Heartbeat CPU  0 instructions:   26000003 cycles:   35178739 heartbeat IPC: 0.49647 cumulative IPC: 0.51800 (Simulation time: 0 hr 0 min 55 sec) 
Heartbeat CPU  0 instructions:   27000003 cycles:   37161916 heartbeat IPC: 0.50424 cumulative IPC: 0.51717 (Simulation time: 0 hr 0 min 58 sec) 
Heartbeat CPU  0 instructions:   28000000 cycles:   39133769 heartbeat IPC: 0.50714 cumulative IPC: 0.51660 (Simulation time: 0 hr 1 min 0 sec) 
Heartbeat CPU  0 instructions:   29000000 cycles:   41105017 heartbeat IPC: 0.50729 cumulative IPC: 0.51610 (Simulation time: 0 hr 1 min 2 sec) 
Heartbeat CPU  0 instructions:   30000003 cycles:   43082745 heartbeat IPC: 0.50563 cumulative IPC: 0.51557 (Simulation time: 0 hr 1 min 5 sec) 
Heartbeat CPU  0 instructions:   31000002 cycles:   45103155 heartbeat IPC: 0.49495 cumulative IPC: 0.51455 (Simulation time: 0 hr 1 min 7 sec) 
Heartbeat CPU  0 instructions:   32000000 cycles:   47082092 heartbeat IPC: 0.50532 cumulative IPC: 0.51412 (Simulation time: 0 hr 1 min 10 sec) 
Heartbeat CPU  0 instructions:   33000001 cycles:   49107962 heartbeat IPC: 0.49362 cumulative IPC: 0.51319 (Simulation time: 0 hr 1 min 12 sec) 
Heartbeat CPU  0 instructions:   34000000 cycles:   51125567 heartbeat IPC: 0.49564 cumulative IPC: 0.51244 (Simulation time: 0 hr 1 min 15 sec) 
Heartbeat CPU  0 instructions:   35000002 cycles:   53146219 heartbeat IPC: 0.49489 cumulative IPC: 0.51171 (Simulation time: 0 hr 1 min 17 sec) 
Heartbeat CPU  0 instructions:   36000000 cycles:   55165848 heartbeat IPC: 0.49514 cumulative IPC: 0.51105 (Simulation time: 0 hr 1 min 19 sec) 
Heartbeat CPU  0 instructions:   37000001 cycles:   57195518 heartbeat IPC: 0.49269 cumulative IPC: 0.51035 (Simulation time: 0 hr 1 min 22 sec) 
Heartbeat CPU  0 instructions:   38000000 cycles:   59232970 heartbeat IPC: 0.49081 cumulative IPC: 0.50963 (Simulation time: 0 hr 1 min 24 sec) 
Heartbeat CPU  0 instructions:   39000002 cycles:   61261053 heartbeat IPC: 0.49308 cumulative IPC: 0.50904 (Simulation time: 0 hr 1 min 27 sec) 
Heartbeat CPU  0 instructions:   40000000 cycles:   63241496 heartbeat IPC: 0.50494 cumulative IPC: 0.50890 (Simulation time: 0 hr 1 min 29 sec) 
Heartbeat CPU  0 instructions:   41000002 cycles:   65258087 heartbeat IPC: 0.49589 cumulative IPC: 0.50847 (Simulation time: 0 hr 1 min 31 sec) 
Heartbeat CPU  0 instructions:   42000000 cycles:   67306426 heartbeat IPC: 0.48820 cumulative IPC: 0.50781 (Simulation time: 0 hr 1 min 34 sec) 
Heartbeat CPU  0 instructions:   43000002 cycles:   69317542 heartbeat IPC: 0.49724 cumulative IPC: 0.50748 (Simulation time: 0 hr 1 min 36 sec) 
Heartbeat CPU  0 instructions:   44000000 cycles:   71337401 heartbeat IPC: 0.49508 cumulative IPC: 0.50711 (Simulation time: 0 hr 1 min 39 sec) 
Heartbeat CPU  0 instructions:   45000001 cycles:   73418428 heartbeat IPC: 0.48053 cumulative IPC: 0.50631 (Simulation time: 0 hr 1 min 41 sec) 
Heartbeat CPU  0 instructions:   46000002 cycles:   75411863 heartbeat IPC: 0.50165 cumulative IPC: 0.50618 (Simulation time: 0 hr 1 min 43 sec) 
Heartbeat CPU  0 instructions:   47000002 cycles:   77410490 heartbeat IPC: 0.50034 cumulative IPC: 0.50602 (Simulation time: 0 hr 1 min 46 sec) 
Heartbeat CPU  0 instructions:   48000000 cycles:   79425183 heartbeat IPC: 0.49635 cumulative IPC: 0.50576 (Simulation time: 0 hr 1 min 48 sec) 
Heartbeat CPU  0 instructions:   49000001 cycles:   81405561 heartbeat IPC: 0.50495 cumulative IPC: 0.50574 (Simulation time: 0 hr 1 min 51 sec) 
Heartbeat CPU  0 instructions:   50000000 cycles:   83400352 heartbeat IPC: 0.50131 cumulative IPC: 0.50563 (Simulation time: 0 hr 1 min 53 sec) 
Heartbeat CPU  0 instructions:   51000002 cycles:   85418002 heartbeat IPC: 0.49563 cumulative IPC: 0.50538 (Simulation time: 0 hr 1 min 55 sec) 
Heartbeat CPU  0 instructions:   52000000 cycles:   87451255 heartbeat IPC: 0.49182 cumulative IPC: 0.50505 (Simulation time: 0 hr 1 min 58 sec) 
Heartbeat CPU  0 instructions:   53000001 cycles:   89493566 heartbeat IPC: 0.48964 cumulative IPC: 0.50468 (Simulation time: 0 hr 2 min 0 sec) 
Heartbeat CPU  0 instructions:   54000002 cycles:   91531509 heartbeat IPC: 0.49069 cumulative IPC: 0.50435 (Simulation time: 0 hr 2 min 3 sec) 
Heartbeat CPU  0 instructions:   55000002 cycles:   93554289 heartbeat IPC: 0.49437 cumulative IPC: 0.50412 (Simulation time: 0 hr 2 min 5 sec) 
Heartbeat CPU  0 instructions:   56000000 cycles:   95604273 heartbeat IPC: 0.48781 cumulative IPC: 0.50376 (Simulation time: 0 hr 2 min 7 sec) 
Heartbeat CPU  0 instructions:   57000003 cycles:   97658515 heartbeat IPC: 0.48680 cumulative IPC: 0.50339 (Simulation time: 0 hr 2 min 10 sec) 
Heartbeat CPU  0 instructions:   58000003 cycles:   99691824 heartbeat IPC: 0.49181 cumulative IPC: 0.50314 (Simulation time: 0 hr 2 min 12 sec) 
Heartbeat CPU  0 instructions:   59000001 cycles:  101722781 heartbeat IPC: 0.49238 cumulative IPC: 0.50291 (Simulation time: 0 hr 2 min 15 sec) 
Heartbeat CPU  0 instructions:   60000000 cycles:  103730234 heartbeat IPC: 0.49814 cumulative IPC: 0.50282 (Simulation time: 0 hr 2 min 17 sec) 
Finished CPU 0 instructions: 50000002 cycles: 99439574 cumulative IPC: 0.50282 (Simulation time: 0 hr 2 min 17 sec) 

ChampSim completed all CPUs

[ROI Statistics]
Core_0_instructions 50000002
Core_0_cycles 99439574
Core_0_IPC 0.50282

Core_0_branch_prediction_accuracy 99.18540
Core_0_branch_MPKI 0.05624
Core_0_average_ROB_occupancy_at_mispredict 254.75427

Core_0_L1D_total_access 13948795
Core_0_L1D_total_hit 13104860
Core_0_L1D_total_miss 843935
Core_0_L1D_loads 11490203
Core_0_L1D_load_hit 10646268
Core_0_L1D_load_miss 843935
Core_0_L1D_RFOs 2458592
Core_0_L1D_RFO_hit 2458592
Core_0_L1D_RFO_miss 0
Core_0_L1D_prefetches 0
Core_0_L1D_prefetch_hit 0
Core_0_L1D_prefetch_miss 0
Core_0_L1D_writebacks 0
Core_0_L1D_writeback_hit 0
Core_0_L1D_writeback_miss 0
Core_0_L1D_prefetch_requested 0
Core_0_L1D_prefetch_dropped 0
Core_0_L1D_prefetch_issued 0
Core_0_L1D_prefetch_filled 0
Core_0_L1D_prefetch_useful 0
Core_0_L1D_prefetch_useless 0
Core_0_L1D_prefetch_late 0
Core_0_L1D_average_miss_latency 218.49996

Core_0_L1D_rq_access 17132335
Core_0_L1D_rq_forward 0
Core_0_L1D_rq_merged 5510097
Core_0_L1D_rq_to_cache 11622238
Core_0_L1D_rq_full 0

Core_0_L1D_wq_access 2458593
Core_0_L1D_wq_forward 0
Core_0_L1D_wq_merged 0
Core_0_L1D_wq_to_cache 2458593
Core_0_L1D_wq_full 0

Core_0_L1D_pq_access 0
Core_0_L1D_pq_forward 0
Core_0_L1D_pq_merged 0
Core_0_L1D_pq_to_cache 0
Core_0_L1D_pq_full 0

Core_0_L1D_acc_epochs 99980
Core_0_L1D_acc_level_0 99980
Core_0_L1D_acc_level_1 0
Core_0_L1D_acc_level_2 0
Core_0_L1D_acc_level_3 0
Core_0_L1D_acc_level_4 0
Core_0_L1D_acc_level_5 0
Core_0_L1D_acc_level_6 0
Core_0_L1D_acc_level_7 0
Core_0_L1D_acc_level_8 0
Core_0_L1D_acc_level_9 0

Core_0_L1I_total_access 11379851
Core_0_L1I_total_hit 11379851
Core_0_L1I_total_miss 0
Core_0_L1I_loads 11379851
Core_0_L1I_load_hit 11379851
Core_0_L1I_load_miss 0
Core_0_L1I_RFOs 0
Core_0_L1I_RFO_hit 0
Core_0_L1I_RFO_miss 0
Core_0_L1I_prefetches 0
Core_0_L1I_prefetch_hit 0
Core_0_L1I_prefetch_miss 0
Core_0_L1I_writebacks 0
Core_0_L1I_writeback_hit 0
Core_0_L1I_writeback_miss 0
Core_0_L1I_prefetch_requested 0
Core_0_L1I_prefetch_dropped 0
Core_0_L1I_prefetch_issued 0
Core_0_L1I_prefetch_filled 0
Core_0_L1I_prefetch_useful 0
Core_0_L1I_prefetch_useless 0
Core_0_L1I_prefetch_late 0
Core_0_L1I_average_miss_latency -nan

Core_0_L1I_rq_access 50000005
Core_0_L1I_rq_forward 0
Core_0_L1I_rq_merged 38620154
Core_0_L1I_rq_to_cache 11379851
Core_0_L1I_rq_full 0

Core_0_L1I_wq_access 0
Core_0_L1I_wq_forward 0
Core_0_L1I_wq_merged 0
Core_0_L1I_wq_to_cache 0
Core_0_L1I_wq_full 0

Core_0_L1I_pq_access 0
Core_0_L1I_pq_forward 0
Core_0_L1I_pq_merged 0
Core_0_L1I_pq_to_cache 0
Core_0_L1I_pq_full 0

Core_0_L1I_acc_epochs 99980
Core_0_L1I_acc_level_0 99980
Core_0_L1I_acc_level_1 0
Core_0_L1I_acc_level_2 0
Core_0_L1I_acc_level_3 0
Core_0_L1I_acc_level_4 0
Core_0_L1I_acc_level_5 0
Core_0_L1I_acc_level_6 0
Core_0_L1I_acc_level_7 0
Core_0_L1I_acc_level_8 0
Core_0_L1I_acc_level_9 0

Core_0_L2C_total_access 1105072
Core_0_L2C_total_hit 286150
Core_0_L2C_total_miss 818922
Core_0_L2C_loads 843935
Core_0_L2C_load_hit 25141
Core_0_L2C_load_miss 818794
Core_0_L2C_RFOs 0
Core_0_L2C_RFO_hit 0
Core_0_L2C_RFO_miss 0
Core_0_L2C_prefetches 0
Core_0_L2C_prefetch_hit 0
Core_0_L2C_prefetch_miss 0
Core_0_L2C_writebacks 261137
Core_0_L2C_writeback_hit 261009
Core_0_L2C_writeback_miss 128
Core_0_L2C_prefetch_requested 0
Core_0_L2C_prefetch_dropped 0
Core_0_L2C_prefetch_issued 0
Core_0_L2C_prefetch_filled 0
Core_0_L2C_prefetch_useful 0
Core_0_L2C_prefetch_useless 0
Core_0_L2C_prefetch_late 0
Core_0_L2C_average_miss_latency 209.83443

Core_0_L2C_rq_access 843935
Core_0_L2C_rq_forward 0
Core_0_L2C_rq_merged 0
Core_0_L2C_rq_to_cache 843935
Core_0_L2C_rq_full 0

Core_0_L2C_wq_access 261137
Core_0_L2C_wq_forward 0
Core_0_L2C_wq_merged 0
Core_0_L2C_wq_to_cache 261137
Core_0_L2C_wq_full 0

Core_0_L2C_pq_access 0
Core_0_L2C_pq_forward 0
Core_0_L2C_pq_merged 0
Core_0_L2C_pq_to_cache 0
Core_0_L2C_pq_full 0

Core_0_L2C_acc_epochs 99980
Core_0_L2C_acc_level_0 99980
Core_0_L2C_acc_level_1 0
Core_0_L2C_acc_level_2 0
Core_0_L2C_acc_level_3 0
Core_0_L2C_acc_level_4 0
Core_0_L2C_acc_level_5 0
Core_0_L2C_acc_level_6 0
Core_0_L2C_acc_level_7 0
Core_0_L2C_acc_level_8 0
Core_0_L2C_acc_level_9 0

Core_0_LLC_total_access 1078547
Core_0_LLC_total_hit 3643
Core_0_LLC_total_miss 1074904
Core_0_LLC_loads 818794
Core_0_LLC_load_hit 142
Core_0_LLC_load_miss 818652
Core_0_LLC_RFOs 0
Core_0_LLC_RFO_hit 0
Core_0_LLC_RFO_miss 0
Core_0_LLC_prefetches 0
Core_0_LLC_prefetch_hit 0
Core_0_LLC_prefetch_miss 0
Core_0_LLC_writebacks 259753
Core_0_LLC_writeback_hit 3501
Core_0_LLC_writeback_miss 256252
Core_0_LLC_prefetch_requested 0
Core_0_LLC_prefetch_dropped 0
Core_0_LLC_prefetch_issued 0
Core_0_LLC_prefetch_filled 0
Core_0_LLC_prefetch_useful 0
Core_0_LLC_prefetch_useless 0
Core_0_LLC_prefetch_late 0
Core_0_LLC_average_miss_latency 136.91875

Core_0_LLC_rq_access 818794
Core_0_LLC_rq_forward 0
Core_0_LLC_rq_merged 0
Core_0_LLC_rq_to_cache 818794
Core_0_LLC_rq_full 0

Core_0_LLC_wq_access 259753
Core_0_LLC_wq_forward 0
Core_0_LLC_wq_merged 0
Core_0_LLC_wq_to_cache 259753
Core_0_LLC_wq_full 0

Core_0_LLC_pq_access 0
Core_0_LLC_pq_forward 0
Core_0_LLC_pq_merged 0
Core_0_LLC_pq_to_cache 0
Core_0_LLC_pq_full 0

Core_0_LLC_acc_epochs 101300
Core_0_LLC_acc_level_0 101300
Core_0_LLC_acc_level_1 0
Core_0_LLC_acc_level_2 0
Core_0_LLC_acc_level_3 0
Core_0_LLC_acc_level_4 0
Core_0_LLC_acc_level_5 0
Core_0_LLC_acc_level_6 0
Core_0_LLC_acc_level_7 0
Core_0_LLC_acc_level_8 0
Core_0_LLC_acc_level_9 0

Core_0_major_page_fault 0
Core_0_minor_page_fault 13866

Channel_0_RQ_row_buffer_hit 255645
Channel_0_RQ_row_buffer_miss 563007
Channel_0_WQ_row_buffer_hit 213135
Channel_0_WQ_row_buffer_miss 46266
Channel_0_WQ_full 0
Channel_0_dbus_congested 327382

avg_congested_cycle 10

DRAM_bw_pochs 405197
DRAM_bw_level_0 301746
DRAM_bw_level_1 102504
DRAM_bw_level_2 947
DRAM_bw_level_3 0
