*************************************************
   ChampSim Multicore Out-of-Order Simulator
   Last compiled: Apr  3 2025 20:54:34
*************************************************
parsing config file: /home/zir/Pythia/config/mlop.ini

trace_0 /home/zir/ChampSim/ML-DPC/ChampSimTraces/spec17/607.cactuBSSN-s0.trace.xz
adding L2C_PREFETCHER: MLOP
Initialize SHIP state
warmup_instructions 10000000
simulation_instructions 50000000
champsim_seed 163
measure_ipc 0
measure_ipc_epoch 1000
measure_dram_bw 1
measure_dram_bw_epoch 256
measure_cache_acc 1
measure_cache_acc_epoch 1024
l1d_perfect 0
l2c_perfect 0
llc_perfect 0
l1d_semi_perfect 0
l2c_semi_perfect 0
llc_semi_perfect 0
semi_perfect_cache_page_buffer_size 64

num_cpus 1
cpu_freq 4000
dram_io_freq 2400
page_size 4096
block_size 64
max_read_per_cycle 8
max_fill_per_cycle 1
dram_channels 1
log2_dram_channels 0
dram_ranks 1
dram_banks 8
dram_rows 65536
dram_columns 128
dram_row_size 8
dram_size 4096
dram_pages 1048576

fetch_width 6
decode_width 6
exec_width 4
lq_width 2
sq_width 2
retire_width 4
scheduler_size 128
branch_mispredict_penalty 20
rob_size 256
lq_size 72
sq_size 56
num_instr_destinations_sparc 4
num_instr_destinations 2
num_instr_sources 4

itlb_set 16
itlb_way 8
itlb_rq_size 16
itlb_wq_size 16
itlb_pq_size 0
itlb_mshr_size 8
itlb_latency 1

dtlb_set 16
dtlb_way 4
dtlb_rq_size 16
dtlb_wq_size 16
dtlb_pq_size 0
dtlb_mshr_size 8
dtlb_latency 1

stlb_set 128
stlb_way 12
stlb_rq_size 32
stlb_wq_size 32
stlb_pq_size 0
stlb_mshr_size 16
stlb_latency 8

l1i_size 32
l1i_set 64
l1i_way 8
l1i_rq_size 64
l1i_wq_size 64
l1i_pq_size 8
l1i_mshr_size 8
l1i_latency 1

l1d_size 32
l1d_set 64
l1d_way 8
l1d_rq_size 64
l1d_wq_size 64
l1d_pq_size 8
l1d_mshr_size 16
l1d_latency 4

l2c_size 256
l2c_set 512
l2c_way 8
l2c_rq_size 32
l2c_wq_size 32
l2c_pq_size 32
l2c_mshr_size 32
l2c_latency 10

llc_size 2048
llc_set 2048
llc_way 16
llc_rq_size 32
llc_wq_size 32
llc_pq_size 32
llc_mshr_size 64
llc_latency 20

dram_channel_width 8
dram_wq_size 64
dram_rq_size 64
tRP 15
tRCD 15
tCAS 12.5
dram_dbus_turn_around_time 30
dram_write_high_wm 56
dram_write_low_wm 48
min_dram_writes_per_switch 16
dram_mtps 2400
dram_dbus_return_time 13

mlop_pref_degree 16
mlop_num_updates 500
mlop_l1d_thresh 2
mlop_l2c_thresh 0.75
mlop_llc_thresh 0.3
mlop_debug_level 0
mlop_blocks_in_cache 4096
mlop_blocks_in_zone 64
mlop_amt_size 2048
mlop_PF_DEGREE 16
mlop_NUM_UPDATES 500
mlop_L1D_THRESH 1000
mlop_L2C_THRESH 375
mlop_LLC_THRESH 150
mlop_ORIGIN 63
mlop_MAX_OFFSET 63
mlop_MIN_OFFSET -63
mlop_ORIGIN 63
mlop_NUM_OFFSETS 127


Heartbeat CPU  0 instructions:    1000003 cycles:     569999 heartbeat IPC: 1.75439 cumulative IPC: 1.75439 (Simulation time: 0 hr 0 min 2 sec) 
Heartbeat CPU  0 instructions:    2000000 cycles:    1138736 heartbeat IPC: 1.75828 cumulative IPC: 1.75633 (Simulation time: 0 hr 0 min 4 sec) 
Heartbeat CPU  0 instructions:    3000000 cycles:    1708007 heartbeat IPC: 1.75663 cumulative IPC: 1.75643 (Simulation time: 0 hr 0 min 6 sec) 
Heartbeat CPU  0 instructions:    4000000 cycles:    2278012 heartbeat IPC: 1.75437 cumulative IPC: 1.75592 (Simulation time: 0 hr 0 min 8 sec) 
Heartbeat CPU  0 instructions:    5000001 cycles:    2846776 heartbeat IPC: 1.75820 cumulative IPC: 1.75637 (Simulation time: 0 hr 0 min 10 sec) 
Heartbeat CPU  0 instructions:    6000002 cycles:    3416342 heartbeat IPC: 1.75572 cumulative IPC: 1.75627 (Simulation time: 0 hr 0 min 12 sec) 
Heartbeat CPU  0 instructions:    7000001 cycles:    3985935 heartbeat IPC: 1.75564 cumulative IPC: 1.75618 (Simulation time: 0 hr 0 min 14 sec) 
Heartbeat CPU  0 instructions:    8000000 cycles:    4555328 heartbeat IPC: 1.75625 cumulative IPC: 1.75619 (Simulation time: 0 hr 0 min 16 sec) 
Heartbeat CPU  0 instructions:    9000002 cycles:    5124682 heartbeat IPC: 1.75638 cumulative IPC: 1.75621 (Simulation time: 0 hr 0 min 18 sec) 
Heartbeat CPU  0 instructions:   10000000 cycles:    5693467 heartbeat IPC: 1.75813 cumulative IPC: 1.75640 (Simulation time: 0 hr 0 min 20 sec) 

Warmup complete CPU  0 instructions:   10000004 cycles:    5693468 (Simulation time: 0 hr 0 min 20 sec) 

Heartbeat CPU  0 instructions:   11000000 cycles:    6595421 heartbeat IPC: 1.10870 cumulative IPC: 1.10870 (Simulation time: 0 hr 0 min 22 sec) 
Heartbeat CPU  0 instructions:   12000000 cycles:    7480476 heartbeat IPC: 1.12987 cumulative IPC: 1.11919 (Simulation time: 0 hr 0 min 24 sec) 
Heartbeat CPU  0 instructions:   13000003 cycles:    8362195 heartbeat IPC: 1.13415 cumulative IPC: 1.12413 (Simulation time: 0 hr 0 min 26 sec) 
Heartbeat CPU  0 instructions:   14000003 cycles:    9243942 heartbeat IPC: 1.13411 cumulative IPC: 1.12661 (Simulation time: 0 hr 0 min 28 sec) 
Heartbeat CPU  0 instructions:   15000000 cycles:   10125975 heartbeat IPC: 1.13374 cumulative IPC: 1.12803 (Simulation time: 0 hr 0 min 31 sec) 
Heartbeat CPU  0 instructions:   16000000 cycles:   11007050 heartbeat IPC: 1.13498 cumulative IPC: 1.12918 (Simulation time: 0 hr 0 min 33 sec) 
Heartbeat CPU  0 instructions:   17000001 cycles:   11891480 heartbeat IPC: 1.13067 cumulative IPC: 1.12939 (Simulation time: 0 hr 0 min 35 sec) 
Heartbeat CPU  0 instructions:   18000000 cycles:   12774358 heartbeat IPC: 1.13266 cumulative IPC: 1.12980 (Simulation time: 0 hr 0 min 37 sec) 
Heartbeat CPU  0 instructions:   19000003 cycles:   13655072 heartbeat IPC: 1.13545 cumulative IPC: 1.13043 (Simulation time: 0 hr 0 min 39 sec) 
Heartbeat CPU  0 instructions:   20000000 cycles:   14534750 heartbeat IPC: 1.13678 cumulative IPC: 1.13106 (Simulation time: 0 hr 0 min 42 sec) 
Heartbeat CPU  0 instructions:   21000002 cycles:   15418211 heartbeat IPC: 1.13191 cumulative IPC: 1.13114 (Simulation time: 0 hr 0 min 44 sec) 
Heartbeat CPU  0 instructions:   22000002 cycles:   16301737 heartbeat IPC: 1.13183 cumulative IPC: 1.13119 (Simulation time: 0 hr 0 min 46 sec) 
Heartbeat CPU  0 instructions:   23000002 cycles:   17179610 heartbeat IPC: 1.13912 cumulative IPC: 1.13180 (Simulation time: 0 hr 0 min 48 sec) 
Heartbeat CPU  0 instructions:   24000000 cycles:   18059155 heartbeat IPC: 1.13695 cumulative IPC: 1.13216 (Simulation time: 0 hr 0 min 50 sec) 
Heartbeat CPU  0 instructions:   25000000 cycles:   18940331 heartbeat IPC: 1.13485 cumulative IPC: 1.13234 (Simulation time: 0 hr 0 min 52 sec) 
Heartbeat CPU  0 instructions:   26000000 cycles:   19821123 heartbeat IPC: 1.13534 cumulative IPC: 1.13253 (Simulation time: 0 hr 0 min 55 sec) 
Heartbeat CPU  0 instructions:   27000000 cycles:   20700250 heartbeat IPC: 1.13749 cumulative IPC: 1.13282 (Simulation time: 0 hr 0 min 57 sec) 
Heartbeat CPU  0 instructions:   28000000 cycles:   21585752 heartbeat IPC: 1.12930 cumulative IPC: 1.13262 (Simulation time: 0 hr 0 min 59 sec) 
Heartbeat CPU  0 instructions:   29000003 cycles:   22471866 heartbeat IPC: 1.12853 cumulative IPC: 1.13241 (Simulation time: 0 hr 1 min 1 sec) 
Heartbeat CPU  0 instructions:   30000001 cycles:   23355542 heartbeat IPC: 1.13163 cumulative IPC: 1.13237 (Simulation time: 0 hr 1 min 3 sec) 
Heartbeat CPU  0 instructions:   31000000 cycles:   24248040 heartbeat IPC: 1.12045 cumulative IPC: 1.13180 (Simulation time: 0 hr 1 min 6 sec) 
Heartbeat CPU  0 instructions:   32000000 cycles:   25130158 heartbeat IPC: 1.13364 cumulative IPC: 1.13188 (Simulation time: 0 hr 1 min 8 sec) 
Heartbeat CPU  0 instructions:   33000002 cycles:   26015774 heartbeat IPC: 1.12916 cumulative IPC: 1.13176 (Simulation time: 0 hr 1 min 10 sec) 
Heartbeat CPU  0 instructions:   34000000 cycles:   26901538 heartbeat IPC: 1.12897 cumulative IPC: 1.13164 (Simulation time: 0 hr 1 min 12 sec) 
Heartbeat CPU  0 instructions:   35000003 cycles:   27786925 heartbeat IPC: 1.12945 cumulative IPC: 1.13156 (Simulation time: 0 hr 1 min 14 sec) 
Heartbeat CPU  0 instructions:   36000000 cycles:   28673126 heartbeat IPC: 1.12841 cumulative IPC: 1.13144 (Simulation time: 0 hr 1 min 16 sec) 
Heartbeat CPU  0 instructions:   37000003 cycles:   29557246 heartbeat IPC: 1.13107 cumulative IPC: 1.13142 (Simulation time: 0 hr 1 min 19 sec) 
Heartbeat CPU  0 instructions:   38000002 cycles:   30438475 heartbeat IPC: 1.13478 cumulative IPC: 1.13154 (Simulation time: 0 hr 1 min 21 sec) 
Heartbeat CPU  0 instructions:   39000003 cycles:   31321439 heartbeat IPC: 1.13255 cumulative IPC: 1.13158 (Simulation time: 0 hr 1 min 23 sec) 
Heartbeat CPU  0 instructions:   40000000 cycles:   32209429 heartbeat IPC: 1.12614 cumulative IPC: 1.13139 (Simulation time: 0 hr 1 min 25 sec) 
Heartbeat CPU  0 instructions:   41000001 cycles:   33093229 heartbeat IPC: 1.13148 cumulative IPC: 1.13140 (Simulation time: 0 hr 1 min 27 sec) 
Heartbeat CPU  0 instructions:   42000003 cycles:   33972822 heartbeat IPC: 1.13689 cumulative IPC: 1.13157 (Simulation time: 0 hr 1 min 30 sec) 
Heartbeat CPU  0 instructions:   43000001 cycles:   34852788 heartbeat IPC: 1.13641 cumulative IPC: 1.13171 (Simulation time: 0 hr 1 min 32 sec) 
Heartbeat CPU  0 instructions:   44000000 cycles:   35736611 heartbeat IPC: 1.13145 cumulative IPC: 1.13171 (Simulation time: 0 hr 1 min 34 sec) 
Heartbeat CPU  0 instructions:   45000002 cycles:   36616588 heartbeat IPC: 1.13640 cumulative IPC: 1.13184 (Simulation time: 0 hr 1 min 36 sec) 
Heartbeat CPU  0 instructions:   46000001 cycles:   37496251 heartbeat IPC: 1.13680 cumulative IPC: 1.13198 (Simulation time: 0 hr 1 min 38 sec) 
Heartbeat CPU  0 instructions:   47000003 cycles:   38379836 heartbeat IPC: 1.13176 cumulative IPC: 1.13197 (Simulation time: 0 hr 1 min 41 sec) 
Heartbeat CPU  0 instructions:   48000000 cycles:   39263928 heartbeat IPC: 1.13110 cumulative IPC: 1.13195 (Simulation time: 0 hr 1 min 43 sec) 
Heartbeat CPU  0 instructions:   49000002 cycles:   40143120 heartbeat IPC: 1.13741 cumulative IPC: 1.13209 (Simulation time: 0 hr 1 min 45 sec) 
Heartbeat CPU  0 instructions:   50000003 cycles:   41026277 heartbeat IPC: 1.13230 cumulative IPC: 1.13209 (Simulation time: 0 hr 1 min 47 sec) 
Heartbeat CPU  0 instructions:   51000003 cycles:   41909356 heartbeat IPC: 1.13240 cumulative IPC: 1.13210 (Simulation time: 0 hr 1 min 49 sec) 
Heartbeat CPU  0 instructions:   52000000 cycles:   43047572 heartbeat IPC: 0.87857 cumulative IPC: 1.12437 (Simulation time: 0 hr 1 min 52 sec) 
Heartbeat CPU  0 instructions:   53000003 cycles:   43882100 heartbeat IPC: 1.19829 cumulative IPC: 1.12599 (Simulation time: 0 hr 1 min 54 sec) 
Heartbeat CPU  0 instructions:   54000003 cycles:   44664121 heartbeat IPC: 1.27874 cumulative IPC: 1.12905 (Simulation time: 0 hr 1 min 56 sec) 
Heartbeat CPU  0 instructions:   55000002 cycles:   45440348 heartbeat IPC: 1.28828 cumulative IPC: 1.13216 (Simulation time: 0 hr 1 min 58 sec) 
Heartbeat CPU  0 instructions:   56000000 cycles:   46212016 heartbeat IPC: 1.29589 cumulative IPC: 1.13528 (Simulation time: 0 hr 2 min 0 sec) 
Heartbeat CPU  0 instructions:   57000001 cycles:   46981526 heartbeat IPC: 1.29953 cumulative IPC: 1.13834 (Simulation time: 0 hr 2 min 2 sec) 
Heartbeat CPU  0 instructions:   58000002 cycles:   47759044 heartbeat IPC: 1.28615 cumulative IPC: 1.14108 (Simulation time: 0 hr 2 min 4 sec) 
Heartbeat CPU  0 instructions:   59000000 cycles:   48522981 heartbeat IPC: 1.30901 cumulative IPC: 1.14407 (Simulation time: 0 hr 2 min 6 sec) 
Heartbeat CPU  0 instructions:   60000000 cycles:   49291396 heartbeat IPC: 1.30138 cumulative IPC: 1.14684 (Simulation time: 0 hr 2 min 8 sec) 
Finished CPU 0 instructions: 50000003 cycles: 43597965 cumulative IPC: 1.14684 (Simulation time: 0 hr 2 min 8 sec) 

ChampSim completed all CPUs

[ROI Statistics]
Core_0_instructions 50000003
Core_0_cycles 43597965
Core_0_IPC 1.14684

Core_0_branch_prediction_accuracy 99.59821
Core_0_branch_MPKI 0.02508
Core_0_average_ROB_occupancy_at_mispredict 70.55742

Core_0_L1D_total_access 18693491
Core_0_L1D_total_hit 14423575
Core_0_L1D_total_miss 4269916
Core_0_L1D_loads 14446174
Core_0_L1D_load_hit 10516065
Core_0_L1D_load_miss 3930109
Core_0_L1D_RFOs 4247317
Core_0_L1D_RFO_hit 3907510
Core_0_L1D_RFO_miss 339807
Core_0_L1D_prefetches 0
Core_0_L1D_prefetch_hit 0
Core_0_L1D_prefetch_miss 0
Core_0_L1D_writebacks 0
Core_0_L1D_writeback_hit 0
Core_0_L1D_writeback_miss 0
Core_0_L1D_prefetch_requested 0
Core_0_L1D_prefetch_dropped 0
Core_0_L1D_prefetch_issued 0
Core_0_L1D_prefetch_filled 0
Core_0_L1D_prefetch_useful 0
Core_0_L1D_prefetch_useless 0
Core_0_L1D_prefetch_late 0
Core_0_L1D_average_miss_latency 21.62216

Core_0_L1D_rq_access 18453616
Core_0_L1D_rq_forward 0
Core_0_L1D_rq_merged 3807531
Core_0_L1D_rq_to_cache 14645876
Core_0_L1D_rq_full 0

Core_0_L1D_wq_access 4319810
Core_0_L1D_wq_forward 209
Core_0_L1D_wq_merged 22546
Core_0_L1D_wq_to_cache 4297264
Core_0_L1D_wq_full 0

Core_0_L1D_pq_access 0
Core_0_L1D_pq_forward 0
Core_0_L1D_pq_merged 0
Core_0_L1D_pq_to_cache 0
Core_0_L1D_pq_full 0

Core_0_L1D_acc_epochs 47841
Core_0_L1D_acc_level_0 47841
Core_0_L1D_acc_level_1 0
Core_0_L1D_acc_level_2 0
Core_0_L1D_acc_level_3 0
Core_0_L1D_acc_level_4 0
Core_0_L1D_acc_level_5 0
Core_0_L1D_acc_level_6 0
Core_0_L1D_acc_level_7 0
Core_0_L1D_acc_level_8 0
Core_0_L1D_acc_level_9 0

Core_0_L1I_total_access 11680072
Core_0_L1I_total_hit 10590309
Core_0_L1I_total_miss 1089763
Core_0_L1I_loads 11680072
Core_0_L1I_load_hit 10590309
Core_0_L1I_load_miss 1089763
Core_0_L1I_RFOs 0
Core_0_L1I_RFO_hit 0
Core_0_L1I_RFO_miss 0
Core_0_L1I_prefetches 0
Core_0_L1I_prefetch_hit 0
Core_0_L1I_prefetch_miss 0
Core_0_L1I_writebacks 0
Core_0_L1I_writeback_hit 0
Core_0_L1I_writeback_miss 0
Core_0_L1I_prefetch_requested 0
Core_0_L1I_prefetch_dropped 0
Core_0_L1I_prefetch_issued 0
Core_0_L1I_prefetch_filled 0
Core_0_L1I_prefetch_useful 0
Core_0_L1I_prefetch_useless 0
Core_0_L1I_prefetch_late 0
Core_0_L1I_average_miss_latency 11.62725

Core_0_L1I_rq_access 50000007
Core_0_L1I_rq_forward 0
Core_0_L1I_rq_merged 37065328
Core_0_L1I_rq_to_cache 12934679
Core_0_L1I_rq_full 0

Core_0_L1I_wq_access 0
Core_0_L1I_wq_forward 0
Core_0_L1I_wq_merged 0
Core_0_L1I_wq_to_cache 0
Core_0_L1I_wq_full 0

Core_0_L1I_pq_access 0
Core_0_L1I_pq_forward 0
Core_0_L1I_pq_merged 0
Core_0_L1I_pq_to_cache 0
Core_0_L1I_pq_full 0

Core_0_L1I_acc_epochs 47841
Core_0_L1I_acc_level_0 47841
Core_0_L1I_acc_level_1 0
Core_0_L1I_acc_level_2 0
Core_0_L1I_acc_level_3 0
Core_0_L1I_acc_level_4 0
Core_0_L1I_acc_level_5 0
Core_0_L1I_acc_level_6 0
Core_0_L1I_acc_level_7 0
Core_0_L1I_acc_level_8 0
Core_0_L1I_acc_level_9 0

Core_0_L2C_total_access 6361330
Core_0_L2C_total_hit 5406845
Core_0_L2C_total_miss 954485
Core_0_L2C_loads 5011891
Core_0_L2C_load_hit 4751646
Core_0_L2C_load_miss 260245
Core_0_L2C_RFOs 339497
Core_0_L2C_RFO_hit 276715
Core_0_L2C_RFO_miss 62782
Core_0_L2C_prefetches 631174
Core_0_L2C_prefetch_hit 67
Core_0_L2C_prefetch_miss 631107
Core_0_L2C_writebacks 378768
Core_0_L2C_writeback_hit 378417
Core_0_L2C_writeback_miss 351
Core_0_L2C_prefetch_requested 732577
Core_0_L2C_prefetch_dropped 0
Core_0_L2C_prefetch_issued 732577
Core_0_L2C_prefetch_filled 704631
Core_0_L2C_prefetch_useful 370290
Core_0_L2C_prefetch_useless 333348
Core_0_L2C_prefetch_late 354
Core_0_L2C_average_miss_latency 92.28084

Core_0_L2C_rq_access 5359679
Core_0_L2C_rq_forward 0
Core_0_L2C_rq_merged 0
Core_0_L2C_rq_to_cache 5351389
Core_0_L2C_rq_full 0

Core_0_L2C_wq_access 378768
Core_0_L2C_wq_forward 8290
Core_0_L2C_wq_merged 0
Core_0_L2C_wq_to_cache 378768
Core_0_L2C_wq_full 0

Core_0_L2C_pq_access 732577
Core_0_L2C_pq_forward 0
Core_0_L2C_pq_merged 331
Core_0_L2C_pq_to_cache 732246
Core_0_L2C_pq_full 0

Core_0_L2C_acc_epochs 47841
Core_0_L2C_acc_level_0 21157
Core_0_L2C_acc_level_1 5411
Core_0_L2C_acc_level_2 3314
Core_0_L2C_acc_level_3 2537
Core_0_L2C_acc_level_4 2887
Core_0_L2C_acc_level_5 2720
Core_0_L2C_acc_level_6 1968
Core_0_L2C_acc_level_7 2280
Core_0_L2C_acc_level_8 2063
Core_0_L2C_acc_level_9 3504

Core_0_LLC_total_access 1039076
Core_0_LLC_total_hit 857434
Core_0_LLC_total_miss 181642
Core_0_LLC_loads 259881
Core_0_LLC_load_hit 256093
Core_0_LLC_load_miss 3788
Core_0_LLC_RFOs 59717
Core_0_LLC_RFO_hit 35048
Core_0_LLC_RFO_miss 24669
Core_0_LLC_prefetches 652331
Core_0_LLC_prefetch_hit 501376
Core_0_LLC_prefetch_miss 150955
Core_0_LLC_writebacks 67147
Core_0_LLC_writeback_hit 64917
Core_0_LLC_writeback_miss 2230
Core_0_LLC_prefetch_requested 0
Core_0_LLC_prefetch_dropped 0
Core_0_LLC_prefetch_issued 0
Core_0_LLC_prefetch_filled 176199
Core_0_LLC_prefetch_useful 72726
Core_0_LLC_prefetch_useless 89999
Core_0_LLC_prefetch_late 62
Core_0_LLC_average_miss_latency 375.33688

Core_0_LLC_rq_access 322673
Core_0_LLC_rq_forward 0
Core_0_LLC_rq_merged 0
Core_0_LLC_rq_to_cache 319598
Core_0_LLC_rq_full 0

Core_0_LLC_wq_access 67147
Core_0_LLC_wq_forward 3076
Core_0_LLC_wq_merged 0
Core_0_LLC_wq_to_cache 67147
Core_0_LLC_wq_full 0

Core_0_LLC_pq_access 730343
Core_0_LLC_pq_forward 0
Core_0_LLC_pq_merged 13
Core_0_LLC_pq_to_cache 730329
Core_0_LLC_pq_full 0

Core_0_LLC_acc_epochs 48137
Core_0_LLC_acc_level_0 39015
Core_0_LLC_acc_level_1 2412
Core_0_LLC_acc_level_2 1409
Core_0_LLC_acc_level_3 1154
Core_0_LLC_acc_level_4 756
Core_0_LLC_acc_level_5 854
Core_0_LLC_acc_level_6 526
Core_0_LLC_acc_level_7 399
Core_0_LLC_acc_level_8 261
Core_0_LLC_acc_level_9 1351

Core_0_major_page_fault 0
Core_0_minor_page_fault 3701

[MLOP] History of tracked zone:
IIIIIIIIIIIIIIIIIIIIIIIIIIIIIIIIIIIIIIIIIIIIIIIIIIIIIIIIIIIIIIII
IIIIIIIIIIIIIIIIIIIIIIIIIIIIIIIIIIIIIIIIIIIIIIAIIIIIIIIIIIIIIIII
IIIIIIIIIIIIIIIIIIIIIIIIIIIIIIIIIIIIIIIIIIIIIIA22444IIIIIIIIIIII
IIIIIIIIIIIIIIIIIIIIIIIIIIIIIIIIIIIIIIIIIIIIIIA2244444IIIIIIIIII
IIIIIIIIIIIIIIIIIIIIIIIIIIIIIIIIIIIIIIIIIIIIIIA2244444444444444I
IIIIIIIIIIIIIIIIIIIIIIIIIIIIIIIIIIIIIIIIIIIIIIAA244444444444444I
IIIIIIIIIIIIIIIIIIIIIIIIIIIIIIIIIIIIIIIIIIIIIIAAA44444444444444I
IIIIIIIIIIIIIIIIIIIIIIIIIIIIIIIIIIIIIIIIIIIIIIAAA24444444444444I
IIIIIIIIIIIIIIIIIIIIIIIIIIIIIIIIIIIIIIIIIIIIIIAAAA2444444444444I
IIIIIIIIIIIIIIIIIIIIIIIIIIIIIIIIIIIIIIIIIIIIIIAAAAA244444444444I
IIIIIIIIIIIIIIIIIIIIIIIIIIIIIIIIIIIIIIIIIIIIIIAAAAA222444444444I
IIIIIIIIIIIIIIIIIIIIIIIIIIIIIIIIIIIIIIIIIIIIIIAAAAAA22244444444I
IIIIIIIIIIIIIIIIIIIIIIIIIIIIIIIIIIIIIIIIIIIIIIAAAAAAA2224444444I
IIIIIIIIIIIIIIIIIIIIIIIIIIIIIIIIIIIIIIIIIIIIIIAAAAAAAA222444444I
IIIIIIIIIIIIIIIIIIIIIIIIIIIIIIIIIIIIIIIIIIIIIIAAAAAAAAA22244444I
IIIIIIIIIIIIIIIIIIIIIIIIIIIIIIIIIIIIIIIIIIIIIIAAAAAAAAAA2224444I
IIIIIIIIIIIIIIIIIIIIIIIIIIIIIIIIIIIIIIIIIIIIIIAAAAAAAAAAA222444I
IIIIIIIIIIIIIIIIIIIIIIIIIIIIIIIIIIIIIIIIIIIIIIIAAAAAAAAAA222444I
IIIIIIIIIIIIIIIIIIIIIIIIIIIIIIIIIIIIIIIIIIIIIIIAAAAAAAAAAA22244I
IIIIIIIIIIIIIIIIIIIIIIIIIIIIIIIIIIIIIIIIIIIIIIIIAAAAAAAAAA22244I
IIIIIIIIIIIIIIIIIIIIIIIIIIIIIIIIIIIIIIIIIIIIIIIIAAAAAAAAAAA2224I
IIIIIIIIIIIIIIIIIIIIIIIIIIIIIIIIIIIIIIIIIIIIIIIIIAAAAAAAAAA2224I
IIIIIIIIIIIIIIIIIIIIIIIIIIIIIIIIIIIIIIIIIIIIIIIIIAAAAAAAAAAA222I
IIIIIIIIIIIIIIIIIIIIIIIIIIIIIIIIIIIIIIIIIIIIIIIIIIAAAAAAAAAA222I
IIIIIIIIIIIIIIIIIIIIIIIIIIIIIIIIIIIIIIIIIIIIIIIIIIAAAAAAAAAAA222
IIIIIIIIIIIIIIIIIIIIIIIIIIIIIIIIIIIIIIIIIIIIIIIIIIIAAAAAAAAAA222
IIIIIIIIIIIIIIIIIIIIIIIIIIIIIIIIIIIIIIIIIIIIIIIIIIIAAAAAAAAAAA22
IIIIIIIIIIIIIIIIIIIIIIIIIIIIIIIIIIIIIIIIIIIIIIIIIIIIAAAAAAAAAA22
IIIIIIIIIIIIIIIIIIIIIIIIIIIIIIIIIIIIIIIIIIIIIIIIIIIIAAAAAAAAAAA2
IIIIIIIIIIIIIIIIIIIIIIIIIIIIIIIIIIIIIIIIIIIIIIIIIIIIAAAAAAAAAAAA
IIIIIIIIIIIIIIIIIIIIIIIIIIIIIIIIIIIIIIIIIIIIIIIIIIIIIAAAAAAAAAAA
IIIIIIIIIIIIIIIIIIIIIIIIIIIIIIIIIIIIIIIIIIIIIIIIIIIIIIAAAAAAAAAA
IIIIIIIIIIIIIIIIIIIIIIIIIIIIIIIIIIIIIIIIIIIIIIIIIIIIIIIAAAAAAAAA
IIIIIIIIIIIIIIIIIIIIIIIIIIIIIIIIIIIIIIIIIIIIIIIIIIIIIIIIAAAAAAAA
IIIIIIIIIIIIIIIIIIIIIIIIIIIIIIIIIIIIIIIIIIIIIIIIIIIIIIIIIAAAAAAA
IIIIIIIIIIIIIIIIIIIIIIIIIIIIIIIIIIIIIIIIIIIIIIIIIIIIIIIIIIAAAAAA
IIIIIIIIIIIIIIIIIIIIIIIIIIIIIIIIIIIIIIIIIIIIIIIIIIIIIIIIIIIAAAAA
IIIIIIIIIIIIIIIIIIIIIIIIIIIIIIIIIIIIIIIIIIIIIIIIIIIIIIIIIIIIAAAA
IIIIIIIIIIIIIIIIIIIIIIIIIIIIIIIIIIIIIIIIIIIIIIIIIIIIIIIIIIIIIAAA
IIIIIIIIIIIIIIIIIIIIIIIIIIIIIIIIIIIIIIIIIIIIIIIIIIIIIIIIIIIIIIAA
IIIIIIIIIIIIIIIIIIIIIIIIIIIIIIIIIIIIIIIIIIIIIIIIIIIIIIIIIIIIIIIA
IIIIIIIIIIIIIIIIIIIIIIIIIIIIIIIIIIIIIIIIIIIIIIIIIIIIIIIIIIIIIIII
[MLOP] Prefetch Degree Mean: 3.12085
[MLOP] Prefetch Degree SD: 0.95371
[MLOP] Max Score Left Mean (%): 92.54171
[MLOP] Max Score Left SD (%): 9.10139
[MLOP] Max Score Right Mean (%): 99.50924
[MLOP] Max Score Right SD (%): 2.18460

Channel_0_RQ_row_buffer_hit 126420
Channel_0_RQ_row_buffer_miss 52992
Channel_0_WQ_row_buffer_hit 14138
Channel_0_WQ_row_buffer_miss 18354
Channel_0_WQ_full 0
Channel_0_dbus_congested 62141

avg_congested_cycle 8

DRAM_bw_pochs 192545
DRAM_bw_level_0 169194
DRAM_bw_level_1 7442
DRAM_bw_level_2 9518
DRAM_bw_level_3 6391
