*************************************************
   ChampSim Multicore Out-of-Order Simulator
   Last compiled: Apr  3 2025 20:54:34
*************************************************
parsing config file: /home/zir/Pythia/config/pythia.ini

trace_0 /home/zir/ChampSim/ML-DPC/ChampSimTraces/spec06/429.mcf-s0.trace.gz
adding L2C_PREFETCHER: Scooby
Initialize SHIP state
warmup_instructions 10000000
simulation_instructions 50000000
champsim_seed 163
measure_ipc 0
measure_ipc_epoch 1000
measure_dram_bw 1
measure_dram_bw_epoch 256
measure_cache_acc 1
measure_cache_acc_epoch 1024
l1d_perfect 0
l2c_perfect 0
llc_perfect 0
l1d_semi_perfect 0
l2c_semi_perfect 0
llc_semi_perfect 0
semi_perfect_cache_page_buffer_size 64

num_cpus 1
cpu_freq 4000
dram_io_freq 2400
page_size 4096
block_size 64
max_read_per_cycle 8
max_fill_per_cycle 1
dram_channels 1
log2_dram_channels 0
dram_ranks 1
dram_banks 8
dram_rows 65536
dram_columns 128
dram_row_size 8
dram_size 4096
dram_pages 1048576

fetch_width 6
decode_width 6
exec_width 4
lq_width 2
sq_width 2
retire_width 4
scheduler_size 128
branch_mispredict_penalty 20
rob_size 256
lq_size 72
sq_size 56
num_instr_destinations_sparc 4
num_instr_destinations 2
num_instr_sources 4

itlb_set 16
itlb_way 8
itlb_rq_size 16
itlb_wq_size 16
itlb_pq_size 0
itlb_mshr_size 8
itlb_latency 1

dtlb_set 16
dtlb_way 4
dtlb_rq_size 16
dtlb_wq_size 16
dtlb_pq_size 0
dtlb_mshr_size 8
dtlb_latency 1

stlb_set 128
stlb_way 12
stlb_rq_size 32
stlb_wq_size 32
stlb_pq_size 0
stlb_mshr_size 16
stlb_latency 8

l1i_size 32
l1i_set 64
l1i_way 8
l1i_rq_size 64
l1i_wq_size 64
l1i_pq_size 8
l1i_mshr_size 8
l1i_latency 1

l1d_size 32
l1d_set 64
l1d_way 8
l1d_rq_size 64
l1d_wq_size 64
l1d_pq_size 8
l1d_mshr_size 16
l1d_latency 4

l2c_size 256
l2c_set 512
l2c_way 8
l2c_rq_size 32
l2c_wq_size 32
l2c_pq_size 32
l2c_mshr_size 32
l2c_latency 10

llc_size 2048
llc_set 2048
llc_way 16
llc_rq_size 32
llc_wq_size 32
llc_pq_size 32
llc_mshr_size 64
llc_latency 20

dram_channel_width 8
dram_wq_size 64
dram_rq_size 64
tRP 15
tRCD 15
tCAS 12.5
dram_dbus_turn_around_time 30
dram_write_high_wm 56
dram_write_low_wm 48
min_dram_writes_per_switch 16
dram_mtps 2400
dram_dbus_return_time 13

scooby_alpha 0.0065088
scooby_gamma 0.556301
scooby_epsilon 0.00182284
scooby_state_num_bits 10
scooby_max_states 1024
scooby_seed 200
scooby_policy EGreedy
scooby_learning_type SARSA
scooby_actions 1,3,4,5,10,11,12,22,23,30,32,-1,-3,-6,0,
scooby_max_actions 15
scooby_pt_size 256
scooby_st_size 64
scooby_max_pcs 5
scooby_max_offsets 5
scooby_max_deltas 5
scooby_reward_none -4
scooby_reward_incorrect -8
scooby_reward_correct_untimely 12
scooby_reward_correct_timely 20
scooby_brain_zero_init 0
scooby_enable_reward_all 0
scooby_enable_track_multiple 0
scooby_enable_reward_out_of_bounds 1
scooby_reward_out_of_bounds -12
scooby_state_type 1
scooby_state_hash_type 11
scooby_access_debug 0
scooby_print_access_debug 0
scooby_print_access_debug_pc deadbeef
scooby_print_access_debug_pc_count 0
scooby_print_trace 0
scooby_enable_state_action_stats 1
scooby_enable_reward_tracker_hit 0
scooby_reward_tracker_hit -2
scooby_enable_featurewise_engine 1
scooby_pref_degree 1
scooby_enable_dyn_degree 1
scooby_max_to_avg_q_thresholds 0.5,1,2,
scooby_dyn_degrees 1,2,4,4,
scooby_multi_deg_select_type 2
scooby_last_pref_offset_conf_thresholds 1,3,8,
scooby_dyn_degrees_type2 1,2,4,6,
scooby_action_tracker_size 2
scooby_high_bw_thresh 4
scooby_enable_hbw_reward 1
scooby_reward_hbw_correct_timely 20
scooby_reward_hbw_correct_untimely 12
scooby_reward_hbw_incorrect -14
scooby_reward_hbw_none -2
scooby_reward_hbw_out_of_bounds -12
scooby_reward_hbw_tracker_hit -2
scooby_last_pref_offset_conf_thresholds_hbw 1,3,8,
scooby_dyn_degrees_type2_hbw 1,2,4,6,

le_enable_trace 0
le_trace_interval 0
le_trace_file_name 
le_trace_state 0
le_enable_score_plot 0
le_plot_file_name 
le_plot_actions 
le_enable_action_trace 0
le_action_trace_interval 0
le_action_trace_name 
le_enable_action_plot 0

le_featurewise_active_features PC, PC_Delta
le_featurewise_num_tilings 3,3,
le_featurewise_num_tiles 128,128,
le_featurewise_hash_types 2,2,
le_featurewise_enable_tiling_offset 1,1,
le_featurewise_max_q_thresh 0.5
le_featurewise_enable_action_fallback 1
le_featurewise_feature_weights 1,1,
le_featurewise_enable_dynamic_weight 0
le_featurewise_weight_gradient 0.001
le_featurewise_disable_adjust_weight_all_features_align 1
le_featurewise_selective_update 0
le_featurewise_pooling_type 2
le_featurewise_enable_dyn_action_fallback 1
le_featurewise_bw_acc_check_level 1
le_featurewise_acc_thresh 2
le_featurewise_enable_trace 0
le_featurewise_trace_feature_type 0
le_featurewise_trace_feature 
le_featurewise_trace_interval 0
le_featurewise_trace_record_count 0
le_featurewise_trace_file_name 
le_featurewise_enable_score_plot 0
le_featurewise_plot_actions 
le_featurewise_plot_file_name 


Heartbeat CPU  0 instructions:    1000002 cycles:    1359943 heartbeat IPC: 0.73533 cumulative IPC: 0.73533 (Simulation time: 0 hr 0 min 3 sec) 
Heartbeat CPU  0 instructions:    2000002 cycles:    2706282 heartbeat IPC: 0.74275 cumulative IPC: 0.73902 (Simulation time: 0 hr 0 min 6 sec) 
Heartbeat CPU  0 instructions:    3000000 cycles:    4112784 heartbeat IPC: 0.71098 cumulative IPC: 0.72943 (Simulation time: 0 hr 0 min 9 sec) 
Heartbeat CPU  0 instructions:    4000000 cycles:    5488494 heartbeat IPC: 0.72690 cumulative IPC: 0.72880 (Simulation time: 0 hr 0 min 12 sec) 
Heartbeat CPU  0 instructions:    5000000 cycles:    6763793 heartbeat IPC: 0.78413 cumulative IPC: 0.73923 (Simulation time: 0 hr 0 min 14 sec) 
Heartbeat CPU  0 instructions:    6000001 cycles:    8066228 heartbeat IPC: 0.76779 cumulative IPC: 0.74384 (Simulation time: 0 hr 0 min 17 sec) 
Heartbeat CPU  0 instructions:    7000000 cycles:    9382786 heartbeat IPC: 0.75956 cumulative IPC: 0.74605 (Simulation time: 0 hr 0 min 20 sec) 
Heartbeat CPU  0 instructions:    8000000 cycles:   10708819 heartbeat IPC: 0.75413 cumulative IPC: 0.74705 (Simulation time: 0 hr 0 min 23 sec) 
Heartbeat CPU  0 instructions:    9000000 cycles:   11922403 heartbeat IPC: 0.82401 cumulative IPC: 0.75488 (Simulation time: 0 hr 0 min 26 sec) 
Heartbeat CPU  0 instructions:   10000001 cycles:   12881759 heartbeat IPC: 1.04237 cumulative IPC: 0.77629 (Simulation time: 0 hr 0 min 28 sec) 

Warmup complete CPU  0 instructions:   10000001 cycles:   12881759 (Simulation time: 0 hr 0 min 28 sec) 

Heartbeat CPU  0 instructions:   11000001 cycles:   24323615 heartbeat IPC: 0.08740 cumulative IPC: 0.08740 (Simulation time: 0 hr 0 min 34 sec) 
Heartbeat CPU  0 instructions:   12000000 cycles:   34845264 heartbeat IPC: 0.09504 cumulative IPC: 0.09106 (Simulation time: 0 hr 0 min 39 sec) 
Heartbeat CPU  0 instructions:   13000001 cycles:   45495319 heartbeat IPC: 0.09390 cumulative IPC: 0.09199 (Simulation time: 0 hr 0 min 45 sec) 
Heartbeat CPU  0 instructions:   14000001 cycles:   55289908 heartbeat IPC: 0.10210 cumulative IPC: 0.09432 (Simulation time: 0 hr 0 min 50 sec) 
Heartbeat CPU  0 instructions:   15000000 cycles:   65828682 heartbeat IPC: 0.09489 cumulative IPC: 0.09443 (Simulation time: 0 hr 0 min 55 sec) 
Heartbeat CPU  0 instructions:   16000000 cycles:   82453049 heartbeat IPC: 0.06015 cumulative IPC: 0.08624 (Simulation time: 0 hr 1 min 1 sec) 
Heartbeat CPU  0 instructions:   17000001 cycles:   95338980 heartbeat IPC: 0.07760 cumulative IPC: 0.08489 (Simulation time: 0 hr 1 min 7 sec) 
Heartbeat CPU  0 instructions:   18000001 cycles:  105913303 heartbeat IPC: 0.09457 cumulative IPC: 0.08599 (Simulation time: 0 hr 1 min 13 sec) 
Heartbeat CPU  0 instructions:   19000001 cycles:  117224548 heartbeat IPC: 0.08841 cumulative IPC: 0.08625 (Simulation time: 0 hr 1 min 18 sec) 
Heartbeat CPU  0 instructions:   20000000 cycles:  128120979 heartbeat IPC: 0.09177 cumulative IPC: 0.08678 (Simulation time: 0 hr 1 min 24 sec) 
Heartbeat CPU  0 instructions:   21000000 cycles:  139056320 heartbeat IPC: 0.09145 cumulative IPC: 0.08718 (Simulation time: 0 hr 1 min 29 sec) 
Heartbeat CPU  0 instructions:   22000002 cycles:  150302636 heartbeat IPC: 0.08892 cumulative IPC: 0.08732 (Simulation time: 0 hr 1 min 34 sec) 
Heartbeat CPU  0 instructions:   23000003 cycles:  162562579 heartbeat IPC: 0.08157 cumulative IPC: 0.08685 (Simulation time: 0 hr 1 min 40 sec) 
Heartbeat CPU  0 instructions:   24000000 cycles:  179672143 heartbeat IPC: 0.05845 cumulative IPC: 0.08394 (Simulation time: 0 hr 1 min 47 sec) 
Heartbeat CPU  0 instructions:   25000000 cycles:  190145181 heartbeat IPC: 0.09548 cumulative IPC: 0.08462 (Simulation time: 0 hr 1 min 52 sec) 
Heartbeat CPU  0 instructions:   26000000 cycles:  198933297 heartbeat IPC: 0.11379 cumulative IPC: 0.08600 (Simulation time: 0 hr 1 min 57 sec) 
Heartbeat CPU  0 instructions:   27000002 cycles:  207957532 heartbeat IPC: 0.11081 cumulative IPC: 0.08715 (Simulation time: 0 hr 2 min 1 sec) 
Heartbeat CPU  0 instructions:   28000000 cycles:  224180264 heartbeat IPC: 0.06164 cumulative IPC: 0.08519 (Simulation time: 0 hr 2 min 8 sec) 
Heartbeat CPU  0 instructions:   29000002 cycles:  234846531 heartbeat IPC: 0.09375 cumulative IPC: 0.08560 (Simulation time: 0 hr 2 min 13 sec) 
Heartbeat CPU  0 instructions:   30000003 cycles:  242984204 heartbeat IPC: 0.12289 cumulative IPC: 0.08692 (Simulation time: 0 hr 2 min 17 sec) 
Heartbeat CPU  0 instructions:   31000003 cycles:  252369650 heartbeat IPC: 0.10655 cumulative IPC: 0.08769 (Simulation time: 0 hr 2 min 22 sec) 
Heartbeat CPU  0 instructions:   32000000 cycles:  268826658 heartbeat IPC: 0.06076 cumulative IPC: 0.08596 (Simulation time: 0 hr 2 min 29 sec) 
Heartbeat CPU  0 instructions:   33000000 cycles:  277924910 heartbeat IPC: 0.10991 cumulative IPC: 0.08678 (Simulation time: 0 hr 2 min 33 sec) 
Heartbeat CPU  0 instructions:   34000000 cycles:  287267004 heartbeat IPC: 0.10704 cumulative IPC: 0.08747 (Simulation time: 0 hr 2 min 38 sec) 
Heartbeat CPU  0 instructions:   35000001 cycles:  297119562 heartbeat IPC: 0.10150 cumulative IPC: 0.08795 (Simulation time: 0 hr 2 min 43 sec) 
Heartbeat CPU  0 instructions:   36000000 cycles:  314448751 heartbeat IPC: 0.05771 cumulative IPC: 0.08622 (Simulation time: 0 hr 2 min 50 sec) 
Heartbeat CPU  0 instructions:   37000001 cycles:  324906029 heartbeat IPC: 0.09563 cumulative IPC: 0.08653 (Simulation time: 0 hr 2 min 55 sec) 
Heartbeat CPU  0 instructions:   38000000 cycles:  334596842 heartbeat IPC: 0.10319 cumulative IPC: 0.08703 (Simulation time: 0 hr 3 min 0 sec) 
Heartbeat CPU  0 instructions:   39000000 cycles:  342928536 heartbeat IPC: 0.12002 cumulative IPC: 0.08787 (Simulation time: 0 hr 3 min 5 sec) 
Heartbeat CPU  0 instructions:   40000000 cycles:  358599487 heartbeat IPC: 0.06381 cumulative IPC: 0.08678 (Simulation time: 0 hr 3 min 11 sec) 
Heartbeat CPU  0 instructions:   41000003 cycles:  369241784 heartbeat IPC: 0.09396 cumulative IPC: 0.08699 (Simulation time: 0 hr 3 min 16 sec) 
Heartbeat CPU  0 instructions:   42000000 cycles:  377485150 heartbeat IPC: 0.12131 cumulative IPC: 0.08777 (Simulation time: 0 hr 3 min 20 sec) 
Heartbeat CPU  0 instructions:   43000001 cycles:  389184058 heartbeat IPC: 0.08548 cumulative IPC: 0.08770 (Simulation time: 0 hr 3 min 26 sec) 
Heartbeat CPU  0 instructions:   44000000 cycles:  403039650 heartbeat IPC: 0.07217 cumulative IPC: 0.08714 (Simulation time: 0 hr 3 min 32 sec) 
Heartbeat CPU  0 instructions:   45000000 cycles:  410304687 heartbeat IPC: 0.13765 cumulative IPC: 0.08807 (Simulation time: 0 hr 3 min 36 sec) 
Heartbeat CPU  0 instructions:   46000002 cycles:  421376641 heartbeat IPC: 0.09032 cumulative IPC: 0.08813 (Simulation time: 0 hr 3 min 41 sec) 
Heartbeat CPU  0 instructions:   47000002 cycles:  435522445 heartbeat IPC: 0.07069 cumulative IPC: 0.08754 (Simulation time: 0 hr 3 min 47 sec) 
Heartbeat CPU  0 instructions:   48000000 cycles:  443096436 heartbeat IPC: 0.13203 cumulative IPC: 0.08833 (Simulation time: 0 hr 3 min 51 sec) 
Heartbeat CPU  0 instructions:   49000000 cycles:  454111777 heartbeat IPC: 0.09078 cumulative IPC: 0.08839 (Simulation time: 0 hr 3 min 56 sec) 
Heartbeat CPU  0 instructions:   50000000 cycles:  468414399 heartbeat IPC: 0.06992 cumulative IPC: 0.08781 (Simulation time: 0 hr 4 min 2 sec) 
Heartbeat CPU  0 instructions:   51000000 cycles:  475665816 heartbeat IPC: 0.13790 cumulative IPC: 0.08859 (Simulation time: 0 hr 4 min 6 sec) 
Heartbeat CPU  0 instructions:   52000000 cycles:  485985879 heartbeat IPC: 0.09690 cumulative IPC: 0.08878 (Simulation time: 0 hr 4 min 11 sec) 
Heartbeat CPU  0 instructions:   53000000 cycles:  501264137 heartbeat IPC: 0.06545 cumulative IPC: 0.08805 (Simulation time: 0 hr 4 min 17 sec) 
Heartbeat CPU  0 instructions:   54000000 cycles:  508789966 heartbeat IPC: 0.13288 cumulative IPC: 0.08873 (Simulation time: 0 hr 4 min 21 sec) 
Heartbeat CPU  0 instructions:   55000000 cycles:  517702211 heartbeat IPC: 0.11221 cumulative IPC: 0.08914 (Simulation time: 0 hr 4 min 26 sec) 
Heartbeat CPU  0 instructions:   56000000 cycles:  534046345 heartbeat IPC: 0.06118 cumulative IPC: 0.08826 (Simulation time: 0 hr 4 min 32 sec) 
Heartbeat CPU  0 instructions:   57000001 cycles:  541631438 heartbeat IPC: 0.13184 cumulative IPC: 0.08889 (Simulation time: 0 hr 4 min 36 sec) 
Heartbeat CPU  0 instructions:   58000001 cycles:  548942403 heartbeat IPC: 0.13678 cumulative IPC: 0.08954 (Simulation time: 0 hr 4 min 41 sec) 
Heartbeat CPU  0 instructions:   59000000 cycles:  566037673 heartbeat IPC: 0.05850 cumulative IPC: 0.08858 (Simulation time: 0 hr 4 min 47 sec) 
Heartbeat CPU  0 instructions:   60000000 cycles:  574294897 heartbeat IPC: 0.12111 cumulative IPC: 0.08906 (Simulation time: 0 hr 4 min 52 sec) 
Finished CPU 0 instructions: 50000000 cycles: 561413146 cumulative IPC: 0.08906 (Simulation time: 0 hr 4 min 52 sec) 

ChampSim completed all CPUs

[ROI Statistics]
Core_0_instructions 50000000
Core_0_cycles 561413146
Core_0_IPC 0.08906

Core_0_branch_prediction_accuracy 93.33821
Core_0_branch_MPKI 18.74474
Core_0_average_ROB_occupancy_at_mispredict 51.60750

Core_0_L1D_total_access 12403295
Core_0_L1D_total_hit 5199898
Core_0_L1D_total_miss 7203397
Core_0_L1D_loads 10435288
Core_0_L1D_load_hit 3338512
Core_0_L1D_load_miss 7096776
Core_0_L1D_RFOs 1968007
Core_0_L1D_RFO_hit 1861386
Core_0_L1D_RFO_miss 106621
Core_0_L1D_prefetches 0
Core_0_L1D_prefetch_hit 0
Core_0_L1D_prefetch_miss 0
Core_0_L1D_writebacks 0
Core_0_L1D_writeback_hit 0
Core_0_L1D_writeback_miss 0
Core_0_L1D_prefetch_requested 0
Core_0_L1D_prefetch_dropped 0
Core_0_L1D_prefetch_issued 0
Core_0_L1D_prefetch_filled 0
Core_0_L1D_prefetch_useful 0
Core_0_L1D_prefetch_useless 0
Core_0_L1D_prefetch_late 0
Core_0_L1D_average_miss_latency 106.00336

Core_0_L1D_rq_access 18508373
Core_0_L1D_rq_forward 0
Core_0_L1D_rq_merged 7943839
Core_0_L1D_rq_to_cache 10564534
Core_0_L1D_rq_full 0

Core_0_L1D_wq_access 2114394
Core_0_L1D_wq_forward 0
Core_0_L1D_wq_merged 128691
Core_0_L1D_wq_to_cache 1985703
Core_0_L1D_wq_full 0

Core_0_L1D_pq_access 0
Core_0_L1D_pq_forward 0
Core_0_L1D_pq_merged 0
Core_0_L1D_pq_to_cache 0
Core_0_L1D_pq_full 0

Core_0_L1D_acc_epochs 509158
Core_0_L1D_acc_level_0 509158
Core_0_L1D_acc_level_1 0
Core_0_L1D_acc_level_2 0
Core_0_L1D_acc_level_3 0
Core_0_L1D_acc_level_4 0
Core_0_L1D_acc_level_5 0
Core_0_L1D_acc_level_6 0
Core_0_L1D_acc_level_7 0
Core_0_L1D_acc_level_8 0
Core_0_L1D_acc_level_9 0

Core_0_L1I_total_access 9791084
Core_0_L1I_total_hit 9791080
Core_0_L1I_total_miss 4
Core_0_L1I_loads 9791084
Core_0_L1I_load_hit 9791080
Core_0_L1I_load_miss 4
Core_0_L1I_RFOs 0
Core_0_L1I_RFO_hit 0
Core_0_L1I_RFO_miss 0
Core_0_L1I_prefetches 0
Core_0_L1I_prefetch_hit 0
Core_0_L1I_prefetch_miss 0
Core_0_L1I_writebacks 0
Core_0_L1I_writeback_hit 0
Core_0_L1I_writeback_miss 0
Core_0_L1I_prefetch_requested 0
Core_0_L1I_prefetch_dropped 0
Core_0_L1I_prefetch_issued 0
Core_0_L1I_prefetch_filled 0
Core_0_L1I_prefetch_useful 0
Core_0_L1I_prefetch_useless 0
Core_0_L1I_prefetch_late 0
Core_0_L1I_average_miss_latency 240.25000

Core_0_L1I_rq_access 49999998
Core_0_L1I_rq_forward 0
Core_0_L1I_rq_merged 40208913
Core_0_L1I_rq_to_cache 9791085
Core_0_L1I_rq_full 0

Core_0_L1I_wq_access 0
Core_0_L1I_wq_forward 0
Core_0_L1I_wq_merged 0
Core_0_L1I_wq_to_cache 0
Core_0_L1I_wq_full 0

Core_0_L1I_pq_access 0
Core_0_L1I_pq_forward 0
Core_0_L1I_pq_merged 0
Core_0_L1I_pq_to_cache 0
Core_0_L1I_pq_full 0

Core_0_L1I_acc_epochs 509158
Core_0_L1I_acc_level_0 509158
Core_0_L1I_acc_level_1 0
Core_0_L1I_acc_level_2 0
Core_0_L1I_acc_level_3 0
Core_0_L1I_acc_level_4 0
Core_0_L1I_acc_level_5 0
Core_0_L1I_acc_level_6 0
Core_0_L1I_acc_level_7 0
Core_0_L1I_acc_level_8 0
Core_0_L1I_acc_level_9 0

Core_0_L2C_total_access 14450424
Core_0_L2C_total_hit 5054500
Core_0_L2C_total_miss 9395924
Core_0_L2C_loads 7096727
Core_0_L2C_load_hit 2479621
Core_0_L2C_load_miss 4617106
Core_0_L2C_RFOs 106618
Core_0_L2C_RFO_hit 34417
Core_0_L2C_RFO_miss 72201
Core_0_L2C_prefetches 6252332
Core_0_L2C_prefetch_hit 1549759
Core_0_L2C_prefetch_miss 4702573
Core_0_L2C_writebacks 994747
Core_0_L2C_writeback_hit 990703
Core_0_L2C_writeback_miss 4044
Core_0_L2C_prefetch_requested 8617394
Core_0_L2C_prefetch_dropped 7291
Core_0_L2C_prefetch_issued 8610103
Core_0_L2C_prefetch_filled 6117226
Core_0_L2C_prefetch_useful 1762001
Core_0_L2C_prefetch_useless 4353766
Core_0_L2C_prefetch_late 3250
Core_0_L2C_average_miss_latency 211.32032

Core_0_L2C_rq_access 7203401
Core_0_L2C_rq_forward 0
Core_0_L2C_rq_merged 0
Core_0_L2C_rq_to_cache 7203345
Core_0_L2C_rq_full 0

Core_0_L2C_wq_access 994747
Core_0_L2C_wq_forward 75
Core_0_L2C_wq_merged 0
Core_0_L2C_wq_to_cache 994747
Core_0_L2C_wq_full 0

Core_0_L2C_pq_access 8610103
Core_0_L2C_pq_forward 0
Core_0_L2C_pq_merged 127941
Core_0_L2C_pq_to_cache 8482143
Core_0_L2C_pq_full 0

Core_0_L2C_acc_epochs 509158
Core_0_L2C_acc_level_0 100843
Core_0_L2C_acc_level_1 83087
Core_0_L2C_acc_level_2 120653
Core_0_L2C_acc_level_3 131774
Core_0_L2C_acc_level_4 47339
Core_0_L2C_acc_level_5 13849
Core_0_L2C_acc_level_6 4469
Core_0_L2C_acc_level_7 2316
Core_0_L2C_acc_level_8 1267
Core_0_L2C_acc_level_9 3561

Core_0_LLC_total_access 10195979
Core_0_LLC_total_hit 5052538
Core_0_LLC_total_miss 5143441
Core_0_LLC_loads 4614160
Core_0_LLC_load_hit 2522747
Core_0_LLC_load_miss 2091413
Core_0_LLC_RFOs 72167
Core_0_LLC_RFO_hit 25137
Core_0_LLC_RFO_miss 47030
Core_0_LLC_prefetches 4705532
Core_0_LLC_prefetch_hit 1902216
Core_0_LLC_prefetch_miss 2803316
Core_0_LLC_writebacks 804120
Core_0_LLC_writeback_hit 602438
Core_0_LLC_writeback_miss 201682
Core_0_LLC_prefetch_requested 0
Core_0_LLC_prefetch_dropped 0
Core_0_LLC_prefetch_issued 0
Core_0_LLC_prefetch_filled 3594865
Core_0_LLC_prefetch_useful 455669
Core_0_LLC_prefetch_useless 3128678
Core_0_LLC_prefetch_late 0
Core_0_LLC_average_miss_latency 327.41519

Core_0_LLC_rq_access 4686338
Core_0_LLC_rq_forward 0
Core_0_LLC_rq_merged 0
Core_0_LLC_rq_to_cache 4686327
Core_0_LLC_rq_full 0

Core_0_LLC_wq_access 804120
Core_0_LLC_wq_forward 21
Core_0_LLC_wq_merged 0
Core_0_LLC_wq_to_cache 804120
Core_0_LLC_wq_full 0

Core_0_LLC_pq_access 6120480
Core_0_LLC_pq_forward 0
Core_0_LLC_pq_merged 0
Core_0_LLC_pq_to_cache 6120470
Core_0_LLC_pq_full 0

Core_0_LLC_acc_epochs 560835
Core_0_LLC_acc_level_0 298647
Core_0_LLC_acc_level_1 134171
Core_0_LLC_acc_level_2 68317
Core_0_LLC_acc_level_3 30309
Core_0_LLC_acc_level_4 12021
Core_0_LLC_acc_level_5 9488
Core_0_LLC_acc_level_6 3291
Core_0_LLC_acc_level_7 1627
Core_0_LLC_acc_level_8 870
Core_0_LLC_acc_level_9 2094

Core_0_major_page_fault 0
Core_0_minor_page_fault 56247

scooby_st_lookup 8835461
scooby_st_hit 1717653
scooby_st_evict 7117744
scooby_st_insert 7117808
scooby_st_streaming 0

scooby_predict_called 8835461
scooby_predict_out_of_bounds 142588
scooby_predict_action_1 7508145
scooby_predict_issue_action_1 7464732
scooby_predict_hit_action_1 43413
scooby_predict_out_of_bounds_action_1 112872
scooby_predict_action_3 13234
scooby_predict_issue_action_3 12272
scooby_predict_hit_action_3 962
scooby_predict_out_of_bounds_action_3 585
scooby_predict_action_4 12499
scooby_predict_issue_action_4 11921
scooby_predict_hit_action_4 578
scooby_predict_out_of_bounds_action_4 759
scooby_predict_action_5 11259
scooby_predict_issue_action_5 10753
scooby_predict_hit_action_5 506
scooby_predict_out_of_bounds_action_5 936
scooby_predict_action_10 9863
scooby_predict_issue_action_10 9343
scooby_predict_hit_action_10 520
scooby_predict_out_of_bounds_action_10 1830
scooby_predict_action_11 9555
scooby_predict_issue_action_11 8970
scooby_predict_hit_action_11 585
scooby_predict_out_of_bounds_action_11 1989
scooby_predict_action_12 9260
scooby_predict_issue_action_12 8711
scooby_predict_hit_action_12 549
scooby_predict_out_of_bounds_action_12 2126
scooby_predict_action_22 7030
scooby_predict_issue_action_22 6489
scooby_predict_hit_action_22 541
scooby_predict_out_of_bounds_action_22 3579
scooby_predict_action_23 6487
scooby_predict_issue_action_23 6169
scooby_predict_hit_action_23 318
scooby_predict_out_of_bounds_action_23 3736
scooby_predict_action_30 5400
scooby_predict_issue_action_30 4986
scooby_predict_hit_action_30 414
scooby_predict_out_of_bounds_action_30 4479
scooby_predict_action_32 4951
scooby_predict_issue_action_32 4676
scooby_predict_hit_action_32 275
scooby_predict_out_of_bounds_action_32 4750
scooby_predict_action_-1 261910
scooby_predict_issue_action_-1 251504
scooby_predict_hit_action_-1 10406
scooby_predict_out_of_bounds_action_-1 3234
scooby_predict_action_-3 13121
scooby_predict_issue_action_-3 12323
scooby_predict_hit_action_-3 798
scooby_predict_out_of_bounds_action_-3 641
scooby_predict_action_-6 12030
scooby_predict_issue_action_-6 11155
scooby_predict_hit_action_-6 875
scooby_predict_out_of_bounds_action_-6 1072
scooby_predict_action_0 808129
scooby_predict_issue_action_0 0
scooby_predict_hit_action_0 0
scooby_predict_out_of_bounds_action_0 0
scooby_predict_multi_deg_called 345256
scooby_predict_predicted 8617394
scooby_predict_multi_deg 793390
scooby_predict_multi_deg_2 340374
scooby_predict_multi_deg_3 175441
scooby_predict_multi_deg_4 171903
scooby_predict_multi_deg_5 53083
scooby_predict_multi_deg_6 52589
scooby_predict_multi_deg_7 0
scooby_predict_multi_deg_8 0
scooby_predict_multi_deg_9 0
scooby_predict_multi_deg_10 0
scooby_predict_multi_deg_11 0
scooby_predict_multi_deg_12 0
scooby_predict_multi_deg_13 0
scooby_predict_multi_deg_14 0
scooby_predict_multi_deg_15 0
scooby_predict_multi_deg_16 0

scooby_selected_deg_1 7478748
scooby_selected_deg_2 163742
scooby_selected_deg_3 0
scooby_selected_deg_4 124155
scooby_selected_deg_5 0
scooby_selected_deg_6 57359
scooby_selected_deg_7 0
scooby_selected_deg_8 0
scooby_selected_deg_9 0
scooby_selected_deg_10 0
scooby_selected_deg_11 0
scooby_selected_deg_12 0
scooby_selected_deg_13 0
scooby_selected_deg_14 0
scooby_selected_deg_15 0
scooby_selected_deg_16 0

scooby_state_4037c1|23|0 36696,11,10,10,8,10,9,10,8,16,7,27,4,3,4782,41611,
scooby_state_4037c1|21|0 34514,6,12,13,8,9,14,14,14,13,10,39,10,8,4056,38740,
scooby_state_4037c1|33|0 33335,15,10,8,7,7,8,7,8,8,9,26,9,7,3947,37411,
scooby_state_4037c1|4|0 33376,13,11,16,11,9,10,3,7,9,5,19,7,19,3296,36811,
scooby_state_4037c1|30|0 31496,7,6,7,13,6,11,7,8,5,8,22,7,10,3638,35251,
scooby_state_4037c1|26|0 30501,8,8,10,10,16,13,5,8,11,7,29,11,11,3769,34417,
scooby_state_4037c1|17|0 31123,9,12,11,11,3,9,11,7,6,7,23,12,10,3077,34331,
scooby_state_4037c1|41|0 30940,9,9,17,19,11,6,9,8,9,11,21,14,16,3178,34277,
scooby_state_4037c1|50|0 29568,5,7,12,11,9,6,13,5,8,9,29,7,10,4029,33728,
scooby_state_4037ba|14|0 30717,12,9,10,6,9,14,3,6,9,15,12,6,6,2471,33305,
scooby_state_4037ba|16|0 30718,4,3,2,9,10,3,7,9,9,8,12,7,9,2316,33126,
scooby_state_4037c1|20|0 29558,8,10,4,11,6,12,15,6,10,10,17,19,7,3403,33096,
scooby_state_4037ba|17|0 30551,11,11,9,9,5,8,3,5,10,7,4,2,7,2255,32897,
scooby_state_4037c1|58|0 29299,7,10,9,4,7,4,6,9,10,7,20,6,9,3457,32864,
scooby_state_4037c1|1|0 29360,7,6,7,8,7,11,8,7,7,7,29,10,5,3305,32784,
scooby_state_4037c1|11|0 28933,6,7,10,3,12,11,5,6,7,7,24,11,2,3685,32729,
scooby_state_4037c1|25|0 28920,9,6,9,7,9,7,6,8,5,5,32,4,7,3649,32683,
scooby_state_4037aa|1|0 30806,14,17,17,11,3,4,5,3,8,2,6,4,6,1734,32640,
scooby_state_4037aa|0|0 31289,5,7,3,6,2,14,2,4,3,9,5,2,5,1283,32639,
scooby_state_4037aa|8|0 30929,8,2,5,7,2,13,2,5,8,6,6,6,6,1627,32632,
scooby_state_4037aa|9|0 30785,9,20,17,10,2,2,5,5,8,9,8,4,1,1744,32629,
scooby_state_4037aa|25|0 30863,10,13,17,12,7,6,2,6,3,3,10,1,3,1673,32629,
scooby_state_4037aa|40|0 30923,7,5,3,5,2,8,4,9,1,5,7,2,4,1640,32625,
scooby_state_4037aa|17|0 30824,15,13,19,12,3,4,2,2,5,2,12,3,9,1700,32625,
scooby_state_4037aa|41|0 30866,13,18,18,13,5,3,3,4,3,3,3,3,6,1663,32624,
scooby_state_4037aa|24|0 31179,7,3,3,4,5,6,5,2,3,4,2,3,6,1392,32624,
scooby_state_4037aa|16|0 30718,7,6,3,0,3,4,2,3,3,6,7,6,4,1852,32624,
scooby_state_4037aa|33|0 30788,12,20,17,13,6,6,1,6,9,2,9,7,7,1719,32622,
scooby_state_4037aa|49|0 30797,11,16,18,11,4,2,3,4,7,4,6,3,5,1730,32621,
scooby_state_4037aa|57|0 30765,13,19,21,13,4,1,6,2,9,6,6,2,3,1751,32621,
scooby_state_4037aa|2|0 30642,11,6,6,7,21,17,14,4,6,4,4,2,6,1870,32620,
scooby_state_4037aa|3|0 30902,7,4,4,1,2,5,10,12,17,6,7,25,10,1608,32620,
scooby_state_4037aa|4|0 30963,8,5,5,8,6,9,7,5,1,17,14,4,9,1559,32620,
scooby_state_4037aa|48|0 31070,9,2,3,4,4,11,2,10,3,8,3,5,10,1475,32619,
scooby_state_4037aa|6|0 30595,4,3,2,7,4,4,11,6,7,4,10,6,4,1951,32618,
scooby_state_4037aa|32|0 30723,5,4,6,3,2,12,2,3,5,7,7,1,3,1835,32618,
scooby_state_4037aa|7|0 31259,3,3,5,5,11,2,4,6,2,6,7,5,12,1287,32617,
scooby_state_4037aa|56|0 30642,7,3,5,8,4,4,6,9,3,10,3,1,3,1909,32617,
scooby_state_4037aa|5|0 30846,1,4,9,4,4,2,5,8,4,3,14,6,10,1696,32616,
scooby_state_4037aa|10|0 30655,5,8,3,11,20,14,16,7,4,1,3,10,2,1855,32614,
scooby_state_4037aa|13|0 30828,4,4,5,1,4,4,9,3,7,9,10,9,2,1715,32614,
scooby_state_4037aa|11|0 30824,5,4,10,9,2,9,6,11,18,5,4,20,12,1675,32614,
scooby_state_4037aa|14|0 30624,4,5,5,5,6,2,9,8,4,4,7,9,6,1915,32613,
scooby_state_4037aa|12|0 30984,7,5,6,8,5,2,4,3,6,14,13,5,7,1543,32612,
scooby_state_4037aa|22|0 30535,7,3,5,5,5,3,7,2,1,6,7,6,4,2016,32612,
scooby_state_4037aa|43|0 30889,8,4,6,6,4,5,10,13,17,5,7,19,8,1611,32612,
scooby_state_4037aa|21|0 30857,5,3,7,7,8,5,4,6,2,10,16,11,7,1664,32612,
scooby_state_4037aa|23|0 31186,4,5,3,1,5,3,3,7,5,6,6,8,8,1362,32612,
scooby_state_4037aa|38|0 30573,6,3,2,4,3,2,6,7,4,6,10,6,3,1976,32611,
scooby_state_4037aa|62|0 30551,4,5,7,6,4,4,8,1,5,3,5,6,7,1995,32611,
scooby_state_4037aa|42|0 30676,3,5,6,6,17,12,13,5,4,5,5,3,3,1848,32611,
scooby_state_4037aa|30|0 30582,4,6,3,6,4,2,5,8,4,6,9,5,5,1962,32611,
scooby_state_4037aa|27|0 30868,7,11,6,3,3,6,6,16,16,4,9,17,9,1630,32611,
scooby_state_4037aa|19|0 30897,3,7,10,1,1,15,5,13,17,6,9,15,10,1600,32609,
scooby_state_4037aa|26|0 30637,5,3,8,9,18,14,15,3,2,3,5,2,2,1883,32609,
scooby_state_4037aa|54|0 30658,5,7,5,4,0,5,6,5,3,6,8,5,4,1888,32609,
scooby_state_4037aa|15|0 31041,5,4,4,5,7,8,4,6,2,5,2,6,5,1504,32608,
scooby_state_4037aa|45|0 30822,5,5,4,2,7,2,6,5,2,3,14,4,7,1720,32608,
scooby_state_4037aa|61|0 30870,3,6,3,3,6,1,7,7,4,1,12,8,3,1673,32607,
scooby_state_4037aa|47|0 31261,4,3,3,5,7,4,5,9,5,7,3,3,11,1277,32607,
scooby_state_4037aa|29|0 30793,4,3,9,7,4,4,6,4,1,4,16,11,5,1736,32607,
scooby_state_4037aa|20|0 30949,7,2,3,12,3,6,4,4,7,18,16,2,14,1560,32607,
scooby_state_4037aa|34|0 30695,3,5,4,12,19,15,16,4,6,4,6,2,3,1813,32607,
scooby_state_4037aa|28|0 31019,7,4,3,13,4,3,4,6,4,14,14,4,13,1495,32607,
scooby_state_4037aa|44|0 30961,8,0,3,6,5,3,1,1,10,14,16,7,11,1561,32607,
scooby_state_4037aa|18|0 30695,3,5,5,7,17,16,15,5,4,2,5,4,4,1820,32607,
scooby_state_4037aa|31|0 31158,5,5,2,6,8,8,8,2,2,3,8,1,6,1385,32607,
scooby_state_4037aa|50|0 30631,8,11,3,3,22,16,13,7,5,3,5,4,6,1870,32607,
scooby_state_4037aa|46|0 30591,4,6,4,4,6,3,6,7,6,5,5,2,5,1952,32606,
scooby_state_4037aa|51|0 30876,6,7,7,6,3,4,10,14,15,6,6,18,6,1622,32606,
scooby_state_4037aa|37|0 30882,4,7,6,5,4,4,4,10,2,3,12,8,6,1649,32606,
scooby_state_4037aa|36|0 30939,6,6,5,8,7,4,4,2,5,14,16,4,10,1576,32606,
scooby_state_4037aa|55|0 31134,3,5,5,3,8,6,2,6,3,3,1,8,8,1410,32605,
scooby_state_4037aa|52|0 31003,5,5,7,7,6,3,0,4,1,12,20,7,12,1513,32605,
scooby_state_4037aa|39|0 30999,4,4,2,6,7,4,2,3,2,3,3,2,13,1550,32604,
scooby_state_4037aa|60|0 30905,4,3,4,8,7,6,1,7,5,16,17,6,12,1602,32603,
scooby_state_4037aa|58|0 30657,10,7,9,5,21,14,21,10,7,3,3,2,3,1831,32603,
scooby_state_4037aa|35|0 30914,7,4,5,6,4,6,4,12,18,2,6,20,7,1588,32603,
scooby_state_4037aa|59|0 30929,6,2,4,4,3,7,3,12,14,8,8,16,8,1578,32602,
scooby_state_4037aa|53|0 30815,11,3,6,4,4,4,4,6,3,3,14,11,3,1711,32602,
scooby_state_4037aa|63|0 30987,5,5,4,4,2,7,2,1,2,5,4,5,12,1556,32601,
scooby_state_4037c1|19|0 28915,7,7,7,9,8,7,7,8,6,6,25,10,7,3448,32477,
scooby_state_4037ba|7|0 30009,11,9,5,7,3,9,9,8,7,3,17,3,7,2270,32377,
scooby_state_4037ba|50|0 29947,5,5,6,8,5,7,4,3,5,6,4,2,5,2274,32286,
scooby_state_4037ba|52|0 29769,7,4,8,11,5,7,8,5,2,7,12,13,4,2300,32162,
scooby_state_4037c1|10|0 28444,9,3,7,7,8,4,5,10,8,9,28,5,9,3540,32096,
scooby_state_4037ba|25|0 29708,8,5,4,6,6,3,7,7,5,4,13,3,4,2297,32080,
scooby_state_4037ba|33|0 29639,6,6,6,7,6,9,10,8,4,4,10,7,9,2228,31959,
scooby_state_4037ba|39|0 29449,12,8,6,11,8,6,5,6,5,5,12,2,6,2372,31913,
scooby_state_4037ba|4|0 29529,7,11,4,7,4,6,8,7,4,7,16,11,5,2277,31903,
scooby_state_4037c1|35|0 28281,8,6,5,9,9,6,2,8,5,7,24,9,4,3470,31853,
scooby_state_4037ba|45|0 29237,8,9,5,2,3,9,4,9,11,12,15,2,7,2253,31586,
scooby_state_4037ba|5|0 29100,3,7,4,7,6,4,6,9,9,9,15,6,9,2245,31439,
scooby_state_4037ba|13|0 29142,7,10,5,7,11,4,5,8,7,8,11,5,3,2151,31384,
scooby_state_4037ba|41|0 28944,9,6,7,5,5,5,9,6,5,4,13,6,15,2188,31227,
scooby_state_4037c1|0|0 27769,5,8,4,10,5,8,8,5,6,4,17,7,8,3359,31223,
scooby_state_4037ba|44|0 28999,4,9,3,7,5,8,8,2,8,5,12,8,7,2138,31223,
scooby_state_4037ba|24|0 28868,8,4,11,5,8,3,5,4,8,4,12,9,8,2244,31201,
scooby_state_4037ba|22|0 28877,8,5,5,7,4,8,8,6,9,6,12,2,6,2194,31157,
scooby_state_4037ba|11|0 28891,2,3,6,11,4,11,6,5,6,9,8,3,5,2184,31154,
scooby_state_4037ba|40|0 28848,3,6,8,6,7,6,6,6,2,7,7,8,9,2221,31150,
scooby_state_4037ba|58|0 28815,4,5,9,9,3,7,7,7,7,6,16,9,6,2151,31061,
scooby_state_4037ba|37|0 28695,9,5,11,7,7,5,9,6,7,9,10,10,6,2144,30940,
scooby_state_4037c1|42|0 27370,7,6,10,6,8,6,7,2,7,7,28,11,8,3389,30872,
scooby_state_4037ba|48|0 28403,6,6,10,5,11,10,3,7,3,4,17,7,9,2232,30733,
scooby_state_4037c1|22|0 27305,5,11,4,7,12,11,7,5,5,5,30,6,13,3288,30714,
scooby_state_4037ba|42|0 28406,4,6,11,5,3,4,4,4,5,7,16,2,3,2199,30679,
scooby_state_4037ba|26|0 28359,8,7,4,6,6,7,5,1,11,6,8,7,10,2214,30659,
scooby_state_4037ba|0|0 28263,7,3,3,11,5,7,4,7,5,8,10,6,4,2123,30466,
scooby_state_4037ba|36|0 28292,5,10,6,4,5,4,8,7,5,5,12,3,9,2071,30446,
scooby_state_4037ba|43|0 28227,7,4,8,1,8,4,5,10,2,0,12,7,7,2143,30445,
scooby_state_4037ba|15|0 28243,8,5,6,1,5,4,10,5,15,7,14,6,6,2103,30438,
scooby_state_4037ba|63|0 28178,10,11,4,13,6,7,5,2,4,4,11,8,4,2158,30425,
scooby_state_4037ba|10|0 28139,5,4,6,3,4,8,3,3,2,8,6,5,13,2175,30384,
scooby_state_4037ba|54|0 28049,2,8,3,9,9,4,4,3,6,11,16,8,4,2220,30356,
scooby_state_4037ba|57|0 27960,6,3,7,5,5,8,7,9,2,9,20,7,6,2090,30144,
scooby_state_4037ba|12|0 27993,7,3,5,7,10,8,7,6,7,6,13,8,8,2006,30094,
scooby_state_4037ba|3|0 27673,8,2,6,4,11,10,3,5,7,6,6,6,6,2133,29886,
scooby_state_4037ba|62|0 27674,10,6,11,7,4,5,5,5,6,7,16,6,3,2108,29873,
scooby_state_4037c1|45|0 26751,7,8,10,7,3,10,7,7,9,7,20,5,7,2990,29848,
scooby_state_4037ba|20|0 27718,8,9,5,8,5,4,5,10,7,6,9,10,5,2029,29838,
scooby_state_4037ba|28|0 27650,3,11,5,8,5,5,3,6,2,10,10,6,4,2089,29817,
scooby_state_4037ba|55|0 27619,13,5,6,6,10,4,3,11,4,2,10,11,4,2102,29810,
scooby_state_4037ba|1|0 27495,6,11,8,4,8,8,5,6,7,7,13,6,5,2144,29733,
scooby_state_4037c1|39|0 26046,10,4,5,3,6,11,7,2,5,3,18,7,11,3531,29669,
scooby_state_4037ba|60|0 27442,4,5,9,6,10,8,1,6,4,3,12,6,4,2132,29652,
scooby_state_4037ba|9|0 27460,5,3,7,7,11,5,5,6,8,1,8,6,9,2076,29617,
scooby_state_4037ba|8|0 27401,13,5,4,4,5,2,7,4,4,7,9,4,6,2065,29540,
scooby_state_4037ba|53|0 27390,7,7,6,4,5,5,6,6,8,3,18,13,10,2047,29535,
scooby_state_4037c1|13|0 26226,10,6,8,3,8,11,7,9,11,9,19,10,4,2963,29304,
scooby_state_4037ba|38|0 27170,5,6,5,4,10,5,9,6,4,9,13,6,2,2015,29269,
scooby_state_4037ba|35|0 27173,3,4,11,4,4,6,2,5,4,3,7,3,6,2032,29267,
scooby_state_4037ba|51|0 27114,6,3,6,2,5,5,6,7,6,7,16,5,6,2024,29218,
scooby_state_4037ba|21|0 26937,5,9,5,6,6,4,4,7,7,6,14,8,6,2037,29061,
scooby_state_4037c1|36|0 25932,10,6,11,10,10,4,6,5,3,7,25,4,8,2955,28996,
scooby_state_4037ba|47|0 26871,8,7,4,6,6,9,7,5,4,2,16,5,9,2007,28966,
scooby_state_4037ba|31|0 26886,4,7,3,7,6,6,2,6,4,4,8,12,4,1981,28940,
scooby_state_4037c1|29|0 25816,3,6,4,13,7,3,5,4,3,3,28,7,5,2925,28832,
scooby_state_4037ba|30|0 26715,5,6,5,5,6,6,7,6,4,7,4,5,6,1936,28723,
scooby_state_4037ba|34|0 26666,3,3,4,6,6,4,6,3,3,3,12,6,0,1998,28723,
scooby_state_4037ba|32|0 26622,6,6,6,4,3,3,9,4,5,4,13,2,8,2006,28701,
scooby_state_4037ba|19|0 26562,2,9,8,7,7,5,6,6,9,4,10,3,4,2038,28680,
scooby_state_4037ba|27|0 26483,8,6,13,4,8,6,3,6,5,5,11,2,8,2045,28613,
scooby_state_4037ba|29|0 26319,7,5,2,3,7,7,4,2,8,6,8,4,7,2010,28399,
scooby_state_4037ba|59|0 26365,4,10,6,4,5,1,8,7,2,2,6,7,5,1931,28363,
scooby_state_4037ba|6|0 26182,8,3,3,5,6,6,4,9,5,7,17,3,6,2069,28333,
scooby_state_4037ba|2|0 26266,5,7,5,7,4,6,1,12,5,4,11,5,2,1982,28322,
scooby_state_4037ba|46|0 26107,6,4,4,5,4,4,10,7,9,5,15,9,4,2020,28213,
scooby_state_4037ba|61|0 26263,4,7,10,9,3,4,4,6,6,5,12,7,8,1840,28188,
scooby_state_4037c1|51|0 24927,1,8,5,6,8,6,9,8,5,7,17,12,7,3122,28148,
scooby_state_4037ba|18|0 25983,4,4,4,8,5,4,5,5,3,12,16,5,3,1936,27997,
scooby_state_4037ba|56|0 25965,6,8,7,6,6,8,1,6,6,5,8,5,5,1897,27939,
scooby_state_4037ba|23|0 25881,2,7,7,9,5,8,6,6,7,4,6,8,4,1871,27831,
scooby_state_4037c1|16|0 24642,6,7,7,10,13,7,6,6,5,4,25,7,5,3058,27808,
scooby_state_4037c1|44|0 24746,6,7,0,6,8,8,10,9,1,4,14,4,6,2852,27681,
scooby_state_4037ba|49|0 25550,6,6,5,7,4,5,7,8,7,5,17,6,7,2017,27657,
scooby_state_4037c1|27|0 24548,9,3,7,9,4,3,8,8,1,7,19,6,4,2898,27534,
scooby_state_4037c1|54|0 24169,10,8,5,9,16,3,10,7,8,8,23,10,5,3120,27411,
scooby_state_4037c1|18|0 24294,3,10,6,6,7,7,9,9,7,4,14,2,6,2868,27252,
scooby_state_4037c1|43|0 24015,2,7,3,4,5,11,8,3,6,4,15,5,5,3102,27195,
scooby_state_4037c1|56|0 24296,12,5,7,10,4,6,7,5,8,7,24,10,9,2722,27132,
scooby_state_4037c1|40|0 23655,1,9,6,7,5,8,6,3,7,7,18,8,7,3110,26857,
scooby_state_4037c1|15|0 23752,10,5,4,4,11,9,3,3,4,3,20,6,2,2975,26811,
scooby_state_4037c1|9|0 23988,8,12,10,9,4,4,5,6,1,6,19,6,4,2693,26775,
scooby_state_4037c1|6|0 23523,2,4,3,6,0,7,4,5,1,11,31,12,6,3098,26713,
scooby_state_4037c1|14|0 23853,5,8,6,3,9,4,4,3,4,4,14,9,9,2626,26561,
scooby_state_4037c1|49|0 23283,11,9,4,6,4,4,4,2,6,5,17,6,7,2832,26200,
scooby_state_4037c1|24|0 23464,11,8,5,9,4,3,3,8,8,3,24,7,3,2619,26179,
scooby_state_4037c1|57|0 23193,11,4,8,5,10,6,4,5,2,5,22,2,7,2727,26011,
scooby_state_4037c1|38|0 22533,8,6,9,8,4,3,6,2,4,5,29,5,4,3177,25803,
scooby_state_4037c1|8|0 22215,5,7,7,8,5,2,7,9,7,3,19,6,6,2899,25205,
scooby_state_4037c1|53|0 22313,5,6,5,9,10,5,8,7,7,9,23,3,6,2562,24978,
scooby_state_4037c1|12|0 22087,8,7,5,8,5,10,9,1,8,8,18,7,7,2403,24591,
scooby_state_4037c1|5|0 21721,6,8,3,7,9,4,3,8,7,6,12,5,5,2456,24260,
scooby_state_4037c1|52|0 21070,6,3,8,4,6,4,3,8,6,5,21,5,7,2915,24071,
scooby_state_4037c1|7|0 20886,5,5,3,8,2,6,2,9,5,4,17,8,6,2757,23723,
scooby_state_4037c1|48|0 20466,8,6,4,7,1,12,4,7,4,6,23,3,7,2829,23387,
scooby_state_4037c1|28|0 20261,3,7,9,4,7,5,7,5,6,6,23,5,1,2716,23065,
scooby_state_4037c1|32|0 19957,6,3,4,5,6,3,6,7,7,7,20,9,4,2842,22886,
scooby_state_4037c1|46|0 19998,3,4,4,4,2,4,4,6,2,4,12,4,5,2666,22722,
scooby_state_4037c1|3|0 20093,10,9,6,6,3,6,7,3,8,6,15,4,7,2494,22677,
scooby_state_4037c1|31|0 19881,5,4,3,6,8,9,1,5,6,4,18,2,4,2632,22588,
scooby_state_4037c1|60|0 19914,9,9,4,6,2,8,2,3,1,3,15,9,5,2498,22488,
scooby_state_4037c1|37|0 19964,6,7,3,5,5,3,7,3,7,4,15,6,3,2326,22364,
scooby_state_4037c1|59|0 19566,7,6,3,5,5,5,3,7,4,6,26,5,5,2371,22024,
scooby_state_4037c1|63|0 19501,5,9,9,3,5,3,1,3,2,3,25,4,2,2423,21998,
scooby_state_4037c1|2|0 19021,4,3,2,4,5,4,3,8,6,5,18,5,7,2392,21487,
scooby_state_4037c1|55|0 19017,5,7,5,7,5,3,7,2,2,5,21,4,3,2352,21445,
scooby_state_4037c1|34|0 19148,4,5,3,7,1,5,10,6,2,6,15,4,2,2072,21290,
scooby_state_4037c1|47|0 18671,7,6,5,6,3,8,3,4,4,6,14,4,3,2286,21030,
scooby_state_4037c1|61|0 17580,2,4,4,4,9,5,6,9,4,3,15,2,1,2295,19943,
scooby_state_4037c1|62|0 17590,4,1,5,9,6,6,4,3,7,5,12,3,5,2002,19662,
scooby_state_4013a1|2|0 6097,0,3,2,0,1,2,1,0,0,2,1,2,2,0,6113,
scooby_state_4013a1|11|0 6048,1,2,1,3,0,4,2,1,2,0,2,4,0,4,6074,
scooby_state_4013a1|0|0 6036,2,2,0,4,0,2,0,1,0,2,4,1,2,1,6057,
scooby_state_4013a1|24|0 5987,1,2,0,2,1,2,1,2,3,0,0,2,1,3,6007,
scooby_state_4013a1|1|0 5950,1,0,3,1,1,5,1,2,2,1,2,4,1,2,5976,
scooby_state_4013a1|5|0 5939,0,2,1,0,0,0,3,2,0,0,1,0,2,1,5951,
scooby_state_4013a1|4|0 5886,2,0,1,0,1,1,1,1,1,3,4,0,0,3,5904,
scooby_state_4013a1|19|0 5874,3,3,3,2,0,1,0,3,0,1,1,4,3,2,5900,
scooby_state_4013a1|7|0 5856,1,2,2,1,1,2,3,0,1,1,2,3,2,2,5879,
scooby_state_4013a1|36|0 5798,1,1,1,1,1,1,0,2,1,0,0,0,5,1,5813,
scooby_state_4013a1|12|0 5751,3,0,2,2,0,1,3,0,3,1,2,0,0,1,5769,
scooby_state_4013a1|15|0 5748,1,1,1,3,2,1,2,1,2,2,1,1,0,0,5766,
scooby_state_4013a1|16|0 5738,0,1,2,1,1,1,0,0,1,0,2,0,1,1,5749,
scooby_state_4013a1|52|0 5708,0,0,1,1,1,2,1,1,0,0,1,4,2,1,5723,
scooby_state_4013a1|3|0 5687,0,1,4,2,2,0,3,0,1,2,2,1,1,2,5708,
scooby_state_4013a1|17|0 5685,2,1,2,1,1,0,4,1,1,1,2,2,1,3,5707,
scooby_state_4013a1|40|0 5671,1,1,2,4,0,1,4,2,1,3,2,4,0,0,5696,
scooby_state_4013a1|6|0 5669,0,5,0,2,1,2,1,1,2,2,3,2,0,1,5691,
scooby_state_4013a1|30|0 5674,0,2,2,1,0,0,2,1,1,1,0,3,1,1,5689,
scooby_state_4013a1|35|0 5643,3,1,3,2,2,4,3,1,2,1,3,0,1,0,5669,
scooby_state_4013a1|13|0 5643,0,2,2,0,3,2,1,1,1,0,3,1,1,1,5661,
scooby_state_4013a1|39|0 5637,1,1,1,2,0,2,1,3,0,1,5,4,0,1,5659,
scooby_state_4013a1|55|0 5616,0,2,0,1,1,1,3,2,1,0,2,1,1,0,5631,
scooby_state_4013a1|20|0 5605,1,1,2,1,2,4,0,2,1,2,0,3,2,0,5626,
scooby_state_4013a1|51|0 5598,1,3,3,2,2,0,2,1,2,0,2,0,1,0,5617,
scooby_state_4013a1|34|0 5595,0,3,0,2,2,3,3,1,1,1,3,0,0,2,5616,
scooby_state_4013a1|26|0 5591,1,2,2,2,0,2,0,1,2,1,1,3,2,0,5610,
scooby_state_4013a1|9|0 5578,1,0,1,1,5,3,1,1,3,0,0,0,1,2,5597,
scooby_state_4013a1|46|0 5572,3,1,2,1,2,1,0,2,0,1,1,1,1,1,5589,
scooby_state_4013a1|57|0 5567,0,1,3,0,1,2,1,0,0,2,6,0,3,0,5586,
scooby_state_4013a1|21|0 5565,1,4,0,1,0,1,2,2,1,0,3,0,0,2,5582,
scooby_state_4013a1|58|0 5569,0,2,2,2,1,1,1,0,0,0,0,1,1,0,5580,
scooby_state_4013a1|22|0 5563,1,0,2,1,0,2,0,0,0,2,3,2,0,1,5577,
scooby_state_4013a1|18|0 5569,1,0,0,0,0,1,2,0,0,0,1,0,1,1,5576,
scooby_state_4013a1|14|0 5535,0,2,3,1,0,1,0,3,2,1,0,1,4,0,5553,
scooby_state_4013a1|8|0 5521,5,1,2,0,1,0,1,3,0,3,3,3,3,1,5547,
scooby_state_4013a1|61|0 5519,1,3,1,3,1,2,2,1,2,3,1,2,0,2,5543,
scooby_state_4013a1|27|0 5515,2,0,1,1,0,1,0,0,0,1,1,2,0,1,5525,
scooby_state_4013a1|25|0 5509,0,0,0,3,0,1,0,0,1,1,5,1,1,2,5524,
scooby_state_4013a1|44|0 5492,1,1,1,2,6,0,0,0,2,0,3,2,1,0,5511,
scooby_state_4013a1|32|0 5473,2,2,3,2,0,1,1,1,3,1,3,1,1,0,5494,
scooby_state_40138f|49|0 3497,2,2,2,1,5,4,3,2,2,1,2,7,4,1957,5491,
scooby_state_4013a1|42|0 5468,2,3,4,1,1,0,2,0,0,1,5,0,2,1,5490,
scooby_state_4013a1|47|0 5453,1,0,3,1,3,0,3,0,1,1,3,1,2,4,5476,
scooby_state_4013a1|23|0 5435,2,1,0,1,1,5,2,1,2,3,0,2,2,2,5459,
scooby_state_4013a1|28|0 5427,0,2,3,1,2,1,0,3,2,0,6,2,4,2,5455,
scooby_state_4013a1|45|0 5436,0,2,0,2,1,1,1,3,0,0,2,0,1,0,5449,
scooby_state_4013a1|43|0 5416,3,1,1,0,1,0,3,0,2,0,1,1,1,0,5430,
scooby_state_4013a1|10|0 5384,3,1,0,2,2,1,2,0,0,0,3,1,1,2,5402,
scooby_state_4013a1|48|0 5367,1,3,1,0,0,1,0,0,2,0,5,2,1,1,5384,
scooby_state_4013a1|54|0 5355,1,1,3,1,1,3,1,2,0,3,4,2,2,1,5380,
scooby_state_4013a1|37|0 5351,1,1,0,3,0,1,1,2,1,0,2,2,2,1,5368,
scooby_state_4013a1|53|0 5337,2,1,1,0,0,1,1,1,2,0,1,1,0,1,5349,
scooby_state_4013a1|60|0 5326,1,2,3,1,0,2,1,0,1,0,0,1,3,1,5342,
scooby_state_4013a1|29|0 5305,2,1,3,0,2,1,0,2,0,2,2,2,0,0,5322,
scooby_state_4013a1|63|0 5304,0,0,0,0,1,1,3,1,1,5,1,0,0,2,5319,
scooby_state_4013a1|33|0 5289,1,1,2,1,0,0,1,3,1,0,6,0,1,3,5309,
scooby_state_4013a1|38|0 5247,1,0,4,3,6,1,1,3,1,0,2,0,2,1,5272,
scooby_state_4013a1|31|0 5248,1,4,2,1,0,0,2,2,0,1,4,3,0,2,5270,
scooby_state_40138f|38|0 3135,1,10,1,6,3,2,7,2,2,5,5,3,4,2076,5262,
scooby_state_4013a1|41|0 5216,1,0,1,1,0,1,3,1,2,1,2,2,2,2,5235,
scooby_state_40138f|52|0 3245,4,3,4,0,2,2,2,2,4,2,4,4,6,1925,5209,
scooby_state_40138f|9|0 3243,3,3,1,1,6,3,2,1,0,2,1,0,1,1937,5204,
scooby_state_4013a1|56|0 5173,1,2,1,1,3,1,0,2,0,1,2,0,2,1,5190,
scooby_state_40138f|7|0 3194,2,2,2,2,5,4,3,0,2,2,4,2,5,1957,5186,
scooby_state_40138f|61|0 3242,3,3,5,3,2,5,2,1,1,4,3,6,3,1884,5167,
scooby_state_4013a1|50|0 5140,2,3,3,1,1,1,2,0,0,2,2,0,1,1,5159,
scooby_state_40138f|41|0 3289,2,5,4,3,2,2,3,4,3,2,4,1,0,1831,5155,
scooby_state_4013a1|59|0 5131,2,1,1,1,0,0,1,0,1,2,5,1,1,1,5148,
scooby_state_40138f|62|0 3143,7,0,0,7,7,3,2,1,3,4,3,1,4,1963,5148,
scooby_state_40138f|57|0 3139,0,4,2,5,1,5,3,3,3,6,6,3,3,1942,5125,
scooby_state_4013a1|62|0 5099,0,1,2,2,0,0,1,0,0,2,1,0,1,1,5110,
scooby_state_40138f|17|0 3161,6,2,0,2,2,4,2,1,3,3,8,3,6,1896,5099,
scooby_state_40138f|33|0 3225,7,3,3,4,3,4,0,2,2,3,4,5,2,1827,5094,
scooby_state_40138f|13|0 3226,3,2,2,3,2,4,3,2,1,1,5,2,5,1812,5073,
scooby_state_4013a1|49|0 5058,1,2,0,1,0,2,0,0,1,0,2,2,0,2,5071,
scooby_state_40138f|39|0 3141,3,1,1,2,4,0,1,0,6,1,6,1,4,1860,5031,
scooby_state_40138f|55|0 3206,1,3,5,3,2,0,4,3,6,6,3,5,4,1779,5030,
scooby_state_40138f|6|0 3025,9,4,3,2,4,4,3,4,1,0,4,3,1,1954,5021,
scooby_state_40138f|31|0 3067,3,4,1,4,6,5,1,4,2,0,6,4,3,1906,5016,
scooby_state_40138f|37|0 3032,1,5,2,2,3,3,4,0,3,3,3,2,4,1939,5006,
scooby_state_40138f|45|0 3047,4,4,7,1,0,2,4,2,6,1,3,1,5,1905,4992,
scooby_state_40138f|4|0 2960,5,2,4,8,2,4,1,3,2,1,3,6,1,1945,4947,
scooby_state_40138f|56|0 2992,1,1,2,6,6,5,4,4,2,2,4,1,3,1910,4943,
scooby_state_40138f|63|0 3142,1,5,3,3,2,1,2,2,1,0,0,3,1,1757,4923,
scooby_state_40138f|12|0 2864,3,8,6,3,6,6,7,2,1,2,1,7,4,1989,4909,
scooby_state_40138f|25|0 3018,1,5,4,4,0,3,0,2,0,5,4,2,2,1844,4894,
scooby_state_40138f|11|0 3034,0,6,5,4,5,2,3,2,1,3,4,4,3,1803,4879,
scooby_state_40138f|36|0 2906,3,3,2,3,1,3,1,2,3,3,1,8,2,1937,4878,
scooby_state_40138f|29|0 3015,2,1,1,2,3,4,4,1,4,2,4,3,1,1825,4872,
scooby_state_40138f|53|0 2947,2,1,5,2,1,2,2,0,1,0,3,5,3,1896,4870,
scooby_state_40138f|15|0 3069,4,3,0,1,4,1,5,3,3,2,3,6,5,1749,4858,
scooby_state_40138f|1|0 2971,2,6,2,4,2,4,2,1,1,1,2,3,2,1855,4858,
scooby_state_40138f|48|0 3032,5,2,2,1,1,2,0,2,5,3,1,2,2,1796,4856,
scooby_state_40138f|47|0 2960,4,0,2,2,2,1,3,3,2,3,6,3,1,1861,4853,
scooby_state_40138f|50|0 3047,6,3,3,4,3,1,3,1,1,3,3,4,4,1759,4845,
scooby_state_40138f|44|0 2926,6,1,3,2,2,3,1,3,0,2,6,3,3,1873,4834,
scooby_state_40138f|2|0 2963,3,2,4,3,4,4,1,5,3,2,5,3,4,1806,4812,
scooby_state_40138f|42|0 2911,5,1,1,5,1,0,4,4,1,4,4,5,9,1854,4809,
scooby_state_40138f|21|0 3006,5,2,4,1,2,1,2,1,2,4,2,2,3,1765,4802,
scooby_state_40138f|10|0 3014,2,4,5,4,4,3,3,2,2,3,1,3,2,1748,4800,
scooby_state_40138f|59|0 2940,2,3,5,2,1,1,4,4,1,4,3,4,5,1815,4794,
scooby_state_40138f|46|0 2953,1,2,1,3,2,2,3,3,6,1,1,3,5,1801,4787,
scooby_state_40138f|8|0 2938,5,5,3,1,2,2,4,2,4,2,3,3,3,1807,4784,
scooby_state_40138f|40|0 2857,4,7,4,3,2,4,7,4,1,0,4,5,0,1871,4773,
scooby_state_40138f|51|0 2910,4,1,4,6,4,3,1,1,1,2,2,4,2,1825,4770,
scooby_state_40138f|32|0 2916,4,5,0,1,3,3,3,3,0,1,5,0,1,1804,4749,
scooby_state_40138f|0|0 2935,3,5,1,7,6,1,6,2,4,5,4,5,4,1760,4748,
scooby_state_40138f|5|0 2861,2,2,3,2,1,2,4,2,2,3,2,5,2,1849,4742,
scooby_state_40138f|58|0 2874,1,3,3,2,3,3,3,1,1,5,2,1,1,1684,4587,
scooby_state_40138f|22|0 2929,3,2,2,2,2,0,4,5,2,2,4,6,7,1591,4561,
scooby_state_40138f|23|0 2903,7,1,3,2,1,5,2,1,0,3,3,4,2,1622,4559,
scooby_state_40138f|27|0 2793,1,3,1,0,4,2,4,3,4,1,3,4,5,1716,4544,
scooby_state_40138f|60|0 2844,1,1,2,0,4,3,4,3,6,2,2,3,0,1669,4544,
scooby_state_40138f|20|0 2801,6,2,2,2,5,4,1,1,1,5,3,2,2,1685,4522,
scooby_state_40138f|54|0 2814,5,1,3,0,3,4,1,7,2,3,2,0,1,1627,4473,
scooby_state_40138f|35|0 2693,3,1,1,4,1,5,4,1,0,1,2,0,2,1749,4467,
scooby_state_40138f|30|0 2795,4,5,4,5,4,0,0,4,1,3,4,5,4,1594,4432,
scooby_state_40138f|28|0 2739,1,4,3,3,2,1,1,2,2,0,7,5,4,1654,4428,
scooby_state_40138f|3|0 2750,5,1,0,4,3,1,5,3,3,1,3,2,1,1632,4414,
scooby_state_40138f|43|0 2683,4,3,2,3,1,4,1,2,1,3,5,3,7,1673,4395,
scooby_state_40138f|34|0 2683,2,2,4,5,1,1,4,4,1,2,1,1,2,1655,4368,
scooby_state_40138f|14|0 2678,1,4,6,2,2,5,1,2,1,6,6,7,2,1622,4345,
scooby_state_40138f|16|0 2646,3,2,6,3,4,2,6,2,2,3,7,0,8,1641,4335,
scooby_state_40138f|19|0 2735,1,1,4,2,2,3,1,1,1,2,3,1,3,1532,4292,
scooby_state_40138f|26|0 2591,5,4,1,4,1,3,2,5,0,4,1,5,4,1632,4262,
scooby_state_40138f|18|0 2578,4,3,2,3,2,5,3,4,3,2,4,5,2,1551,4171,
scooby_state_40138f|24|0 2535,3,3,3,1,2,3,2,6,1,3,1,5,6,1573,4147,
scooby_state_4013ab|55|0 3084,5,3,2,5,2,2,2,2,3,3,24,1,5,909,4052,
scooby_state_4013ab|49|0 3115,1,2,2,4,1,2,3,3,2,2,13,3,2,854,4009,
scooby_state_4013ab|63|0 2919,4,4,3,1,2,4,3,1,4,1,34,2,5,1001,3988,
scooby_state_4013ab|59|0 2929,5,7,7,1,2,3,2,1,4,1,20,3,1,974,3960,
scooby_state_4013ab|57|0 2920,3,6,2,3,6,3,0,1,2,0,32,1,2,940,3921,
scooby_state_4013ab|53|0 3006,0,3,2,1,2,0,1,4,1,0,62,1,3,761,3847,
scooby_state_4013ab|37|0 2860,3,0,0,3,2,4,2,1,1,3,65,1,3,870,3818,
scooby_state_4013ab|62|0 2816,5,5,2,3,3,5,0,2,1,3,20,4,2,947,3818,
scooby_state_4013ab|45|0 2765,2,2,7,4,1,0,2,1,3,1,41,4,0,856,3689,
scooby_state_4013ab|61|0 2696,4,5,1,2,2,3,1,0,3,4,42,5,2,894,3664,
scooby_state_4013ab|17|0 2859,3,0,3,0,3,4,1,2,2,2,21,1,7,737,3645,
scooby_state_4013ab|36|0 2684,2,1,5,2,0,2,6,1,4,2,24,4,5,873,3615,
scooby_state_4013ab|60|0 2620,4,2,6,4,3,3,4,2,0,5,17,5,5,925,3605,
scooby_state_4013ab|41|0 2674,3,3,5,0,1,2,2,4,0,0,32,5,4,834,3569,
scooby_state_4013ab|54|0 2571,2,6,1,5,1,1,0,3,4,4,21,3,2,891,3515,
scooby_state_4013ab|9|0 2651,0,2,1,0,2,2,2,0,1,2,26,2,3,800,3494,
scooby_state_402c4c|21|1 0,0,0,0,4,0,2,1,0,1,1,3470,0,0,6,3485,
scooby_state_4013ab|58|0 2470,3,7,4,4,4,5,2,3,4,1,18,4,4,941,3474,
scooby_state_4013ab|48|0 2543,2,2,2,3,2,4,3,1,5,7,22,2,6,850,3454,
scooby_state_4013ab|44|0 2499,4,5,3,2,5,3,3,4,3,3,17,3,1,897,3452,
scooby_state_4013ab|13|0 2676,2,4,1,0,1,2,1,1,3,3,32,0,1,724,3451,
scooby_state_4013ab|29|0 2652,3,2,3,1,3,0,0,0,2,2,47,1,0,733,3449,
scooby_state_4013ab|56|0 2456,6,3,3,4,3,2,10,4,1,2,12,1,5,928,3440,
scooby_state_402c8c|20|0 3428,1,0,0,0,0,0,0,1,1,0,1,2,1,1,3436,
scooby_state_4013ab|51|0 2447,1,5,4,1,2,1,1,2,4,2,19,2,1,913,3405,
scooby_state_4013ab|47|0 2468,3,1,4,4,1,0,2,4,4,4,14,3,3,858,3373,
scooby_state_4013ab|52|0 2384,4,6,3,3,2,7,4,1,3,2,10,5,6,866,3306,
scooby_state_4013ab|20|0 2497,2,3,1,4,3,1,4,5,3,2,11,3,1,761,3301,
scooby_state_4013ab|1|0 2536,0,2,5,1,0,0,3,3,7,3,23,1,0,716,3300,
scooby_state_4013ab|50|0 2366,1,3,4,0,2,1,1,0,3,7,19,4,3,881,3295,
scooby_state_4013ab|25|0 2419,4,1,1,3,0,3,1,2,1,3,37,1,0,779,3255,
scooby_state_4013ab|43|0 2429,4,2,1,6,4,4,5,4,6,0,11,2,2,760,3240,
scooby_state_4013ab|5|0 2439,3,2,3,1,4,2,2,3,2,0,53,0,5,700,3219,
scooby_state_4013ab|46|0 2355,2,1,1,2,4,2,3,2,1,4,16,0,5,806,3204,
scooby_state_4013a7|47|1 2290,6,2,7,8,5,5,2,3,4,1,3,2,1,859,3198,
scooby_state_4013a7|36|1 2188,3,2,5,3,4,2,3,2,4,1,7,1,3,970,3198,
scooby_state_4013a7|23|1 2155,4,8,4,1,4,4,5,6,3,4,7,5,4,984,3198,
scooby_state_4013a7|6|1 2291,1,4,4,4,2,4,2,3,6,4,5,3,0,855,3188,
scooby_state_4013a7|63|1 2080,1,3,7,4,2,4,5,3,1,5,5,2,5,1058,3185,
scooby_state_4013a7|43|1 2193,6,4,4,1,4,5,6,6,4,3,4,4,5,936,3185,
scooby_state_4013a7|7|1 2247,5,4,6,6,0,3,0,2,3,3,6,7,4,888,3184,
scooby_state_4013a7|57|1 2182,3,4,2,4,4,3,3,2,4,2,1,0,4,965,3183,
scooby_state_4013a7|8|1 2203,5,4,4,2,4,3,8,3,3,2,4,4,4,930,3183,
scooby_state_4013a7|34|1 2238,2,8,2,2,2,1,3,3,3,4,4,7,5,899,3183,
scooby_state_4013ab|4|0 2391,3,2,3,1,0,1,4,4,1,0,21,2,3,746,3182,
scooby_state_4013a7|27|1 2228,4,7,2,5,2,2,4,1,3,2,8,4,3,906,3181,
scooby_state_4013a7|45|1 2234,3,4,2,4,2,8,0,2,3,2,4,6,7,897,3178,
scooby_state_4013a7|18|1 2130,3,4,5,4,3,1,5,2,4,3,11,2,8,991,3176,
scooby_state_4013a7|25|1 2199,5,6,4,5,9,8,3,1,3,1,1,6,5,916,3172,
scooby_state_4013a7|16|1 2226,4,2,6,2,4,1,6,5,3,1,4,1,10,897,3172,
scooby_state_4013a7|24|1 2160,4,6,3,4,5,2,6,3,5,3,5,3,5,957,3171,
scooby_state_4013a7|62|1 2210,4,5,2,6,2,4,5,3,3,3,4,5,4,911,3171,
scooby_state_4013a7|26|1 2130,6,8,3,2,1,3,3,6,2,2,6,3,4,989,3168,
scooby_state_4013a7|9|1 2188,2,3,4,4,9,2,2,2,2,6,5,4,8,926,3167,
scooby_state_4013a7|1|1 2131,4,4,3,6,3,6,6,4,2,2,4,3,7,982,3167,
scooby_state_4013a7|12|1 2111,3,3,2,3,5,5,1,5,2,3,6,3,5,1009,3166,
scooby_state_4013a7|48|1 2248,3,4,5,4,3,4,5,4,0,0,9,2,4,871,3166,
scooby_state_4013a7|50|1 2088,2,3,3,5,2,5,7,7,4,4,8,6,4,1016,3164,
scooby_state_4013a7|21|1 2231,2,4,2,3,4,4,1,3,3,1,7,4,12,883,3164,
scooby_state_4013a7|51|1 2220,2,4,6,3,3,3,3,4,3,2,6,4,5,895,3163,
scooby_state_4013a7|32|1 2149,4,7,6,4,1,7,2,6,2,6,6,1,7,954,3162,
scooby_state_4013a7|14|1 2251,4,5,2,4,4,4,6,0,1,2,4,5,4,866,3162,
scooby_state_4013a7|58|1 2097,5,3,5,2,11,2,5,3,3,6,12,2,4,999,3159,
scooby_state_4013a7|13|1 2177,4,4,4,3,7,5,3,5,2,6,11,8,0,919,3158,
scooby_state_4013a7|54|1 2199,5,3,3,3,7,3,3,5,2,1,8,2,5,909,3158,
scooby_state_4013a7|2|1 2149,6,3,6,6,2,3,2,1,5,1,1,3,4,966,3158,
scooby_state_4013a7|11|1 2168,6,2,5,4,5,2,6,4,0,1,6,2,6,941,3158,
scooby_state_4013a7|22|1 2228,3,3,1,3,3,4,3,2,5,4,5,5,5,883,3157,
scooby_state_4013a7|30|1 2140,4,7,5,5,2,4,3,3,1,2,2,8,4,966,3156,
scooby_state_4013a7|15|1 2203,1,3,5,3,5,5,5,6,3,2,4,5,3,902,3155,
scooby_state_4013a7|20|1 2286,2,7,4,3,2,2,5,6,4,0,6,4,5,817,3153,
scooby_state_4013a7|19|1 2154,1,7,8,4,5,2,2,1,8,3,5,1,1,951,3153,
scooby_state_4013a7|5|1 2217,5,4,3,2,2,0,4,2,1,7,6,4,4,892,3153,
scooby_state_4013a7|35|1 2151,5,2,2,6,4,5,3,3,1,2,6,7,6,950,3153,
scooby_state_4013a7|4|1 2253,4,2,8,2,3,4,2,3,5,4,4,3,1,855,3153,
scooby_state_4013ab|39|0 2346,2,5,3,2,2,1,4,4,1,3,19,3,3,753,3151,
scooby_state_4013a7|42|1 2215,3,7,2,2,2,8,3,1,4,1,4,7,2,890,3151,
scooby_state_4013a7|60|1 2221,3,3,5,4,4,3,6,3,6,3,7,4,2,877,3151,
scooby_state_4013a7|33|1 2110,4,2,6,4,4,5,1,6,5,2,5,5,2,989,3150,
scooby_state_4013a7|29|1 2191,3,6,2,6,5,4,5,2,1,2,6,8,7,899,3147,
scooby_state_4013a7|41|1 2182,5,3,4,6,2,5,7,4,1,3,3,4,7,911,3147,
scooby_state_4013a7|3|1 2237,6,3,3,5,6,9,4,4,6,5,6,3,6,843,3146,
scooby_state_4013a7|40|1 2182,3,0,2,0,8,1,5,2,0,2,11,5,3,922,3146,
scooby_state_4013a7|59|1 2242,2,4,2,2,1,5,4,2,3,4,4,6,1,864,3146,
scooby_state_4013a7|39|1 2116,4,3,6,2,3,5,2,2,4,4,7,5,4,978,3145,
scooby_state_4013a7|52|1 2198,5,0,7,8,3,3,1,7,2,0,4,8,4,894,3144,
scooby_state_4013a7|46|1 2214,4,2,4,6,11,6,5,1,3,1,6,6,2,872,3143,
scooby_state_4013a7|55|1 2199,3,4,4,2,6,4,1,2,1,13,7,5,3,888,3142,
scooby_state_4013a7|61|1 2283,2,5,3,2,6,2,2,2,4,2,7,5,3,814,3142,
scooby_state_4013a7|38|1 2276,3,6,1,2,3,6,4,1,1,2,4,5,1,826,3141,
scooby_state_4013a7|28|1 2151,5,5,2,5,3,1,3,1,1,2,5,5,4,946,3139,
scooby_state_4013a7|37|1 2154,1,3,6,6,6,2,6,4,1,3,3,4,1,938,3138,
scooby_state_4013a7|31|1 2309,4,2,5,4,6,1,4,6,6,1,5,2,2,777,3134,
scooby_state_4013a7|56|1 2177,3,6,3,4,2,6,5,2,1,6,8,2,1,908,3134,
scooby_state_4013a7|10|1 2199,3,4,1,2,7,7,3,2,5,0,5,1,5,890,3134,
scooby_state_4013a7|17|1 2252,4,5,3,2,0,5,4,3,6,5,7,5,3,829,3133,
scooby_state_4013a7|49|1 2127,5,4,3,5,1,2,4,5,2,5,6,4,4,944,3121,
scooby_state_4013ab|33|0 2327,2,1,2,1,3,1,1,1,1,4,33,2,1,739,3119,
scooby_state_4013a7|44|1 2206,6,4,8,2,5,4,2,5,3,4,9,7,6,847,3118,
scooby_state_4013a7|53|1 2207,4,2,6,3,3,6,5,4,6,2,1,4,3,859,3115,
scooby_state_4013ab|15|0 2453,2,4,0,2,1,1,0,1,0,5,13,2,2,627,3113,
scooby_state_4013ab|34|0 2403,1,1,3,2,4,3,2,0,4,5,9,3,3,657,3100,
scooby_state_4013ab|23|0 2394,2,0,1,2,4,6,1,5,4,2,20,4,3,624,3072,
scooby_state_4013ab|7|0 2353,1,5,1,3,2,2,4,2,0,2,29,4,1,638,3047,
scooby_state_4013ab|30|0 2238,1,4,2,1,1,2,2,3,4,2,19,0,2,763,3044,
scooby_state_4013ab|28|0 2227,7,3,3,5,5,2,6,1,5,2,17,1,3,754,3041,
scooby_state_4013ab|31|0 2374,2,2,2,2,0,1,2,3,2,2,16,2,1,614,3025,
scooby_state_4013ab|21|0 2226,2,0,3,1,1,1,1,4,3,0,43,1,2,722,3010,
scooby_state_402c4c|45|0 1,0,0,0,2,0,1,0,0,1,1,3000,0,1,0,3007,
scooby_state_4013ab|35|0 2233,3,1,1,1,2,1,3,1,3,1,26,0,2,721,2999,
scooby_state_4013ab|2|0 2302,3,5,2,3,1,2,2,2,1,1,16,3,1,636,2980,
scooby_state_4013ab|40|0 2167,3,5,3,2,3,2,1,2,1,2,18,1,4,733,2947,
scooby_state_4013ab|26|0 2156,4,1,2,3,1,4,6,2,3,3,21,3,2,703,2914,
scooby_state_4013ab|22|0 2129,0,3,1,2,2,4,3,2,2,3,27,2,4,723,2907,
scooby_state_402c4c|54|1 1,0,0,0,3,1,3,1,0,2,2,2887,1,0,3,2904,
scooby_state_4013ab|0|0 2197,2,1,5,2,3,2,3,2,0,2,18,3,2,643,2885,
scooby_state_4013ab|12|0 2226,3,2,2,2,2,4,3,5,0,2,17,3,3,580,2854,
scooby_state_4013ab|11|0 2099,4,1,2,3,5,3,2,1,2,2,14,1,2,665,2806,
scooby_state_4013ab|3|0 2181,3,1,0,2,3,2,1,2,1,2,8,3,2,592,2803,
scooby_state_4013ab|24|0 2092,1,3,4,2,3,1,3,4,1,0,17,4,1,656,2792,
scooby_state_4013ab|38|0 2105,6,3,1,2,3,0,2,2,1,0,14,3,2,647,2791,
scooby_state_4013ab|19|0 2060,5,2,4,2,0,3,5,4,2,2,21,0,4,641,2755,
scooby_state_4013ab|32|0 2002,1,0,1,1,5,1,3,2,1,3,24,5,2,688,2739,
scooby_state_4013ab|27|0 2070,3,1,1,0,2,0,2,1,2,0,17,2,5,618,2724,
scooby_state_4013ab|18|0 2027,1,4,1,5,2,4,1,3,2,4,10,1,1,625,2691,
scooby_state_4013ab|6|0 1959,1,1,6,1,1,2,1,2,0,3,19,3,1,682,2682,
scooby_state_4013ab|42|0 1922,3,0,0,4,2,1,6,1,2,2,20,2,2,706,2673,
scooby_state_4036b2|1|0 2339,10,17,15,22,19,21,19,20,22,23,64,18,19,35,2663,
scooby_state_4013ab|10|0 1909,0,1,3,3,1,4,2,2,2,0,20,4,5,601,2557,
scooby_state_402db8|36|0 1566,2,1,0,1,1,2,2,4,0,0,960,0,0,0,2539,
scooby_state_4013ab|16|0 1905,2,5,2,2,1,2,5,1,4,0,10,2,0,572,2513,
scooby_state_4013ab|14|0 2019,1,2,1,2,2,2,0,1,2,1,17,2,2,449,2503,
scooby_state_40385e|53|0 2224,23,17,21,18,12,12,7,9,8,12,75,17,17,17,2489,
scooby_state_402c50|54|0 0,0,1,0,0,0,0,1,0,0,0,2390,0,0,1,2393,
scooby_state_402c8c|53|0 2374,0,1,0,1,0,1,0,0,1,0,1,0,0,1,2380,
scooby_state_4013ab|8|0 1845,1,0,2,4,6,0,3,4,0,1,8,2,0,486,2362,
scooby_state_403702|15|0 2270,5,3,3,3,3,4,3,3,4,4,36,3,3,9,2356,
scooby_state_402c20|49|-1 2224,0,1,1,1,1,0,0,1,1,1,0,0,1,98,2330,
scooby_state_403709|21|0 2229,8,4,5,4,4,5,4,5,2,3,9,5,4,5,2296,
scooby_state_402c56|56|-1 409,2,2,0,2,0,0,1,1,1,0,2,1,2,1867,2290,
scooby_state_402cbc|0|0 2280,0,2,0,0,0,0,1,0,1,0,0,1,0,1,2286,
scooby_state_402c20|53|-1 2191,0,0,2,1,0,1,1,0,0,2,2,0,2,47,2249,
scooby_state_402c50|1|1 0,1,0,1,0,0,0,0,0,0,0,2220,1,1,0,2224,
scooby_state_403702|56|0 2089,4,3,2,4,2,4,2,4,2,5,28,2,4,7,2162,
scooby_state_402bb0|54|0 2115,1,0,0,0,2,1,2,0,0,0,18,3,3,3,2148,
scooby_state_403709|63|0 2038,2,4,3,2,3,3,3,3,2,2,6,3,4,11,2089,
scooby_state_403702|36|0 2022,2,2,2,4,3,3,2,2,3,1,25,3,2,7,2083,
scooby_state_402c4c|32|0 0,1,0,1,1,0,1,1,1,0,0,2073,0,1,0,2080,
scooby_state_403702|3|0 2031,1,1,0,1,0,2,0,1,0,2,23,2,4,8,2076,
scooby_state_402c56|44|-1 508,0,4,2,1,1,1,0,1,1,1,0,5,2,1524,2051,
scooby_state_4013a7|0|0 1683,12,19,25,0,1,1,2,0,2,1,117,7,6,171,2047,
scooby_state_403709|29|0 1947,5,4,3,3,3,3,5,6,4,5,9,5,5,20,2027,
scooby_state_403702|11|0 1961,0,1,1,2,0,2,0,2,2,1,12,2,2,3,1991,
scooby_state_402c4c|63|1 0,0,2,0,0,1,1,0,1,0,0,1911,0,0,1,1917,
scooby_state_401384|47|1 1264,4,4,6,2,2,5,2,3,4,2,7,4,7,595,1911,
scooby_state_401384|37|1 1324,4,4,6,0,2,3,4,4,3,4,8,4,4,537,1911,
scooby_state_401384|14|1 1315,4,2,2,5,8,2,5,4,1,5,3,2,3,549,1910,
scooby_state_401384|22|1 1322,8,4,6,7,3,4,0,5,0,3,5,2,3,535,1907,
scooby_state_401384|49|1 1301,5,1,1,3,7,5,1,4,2,2,4,4,7,556,1903,
scooby_state_401384|5|1 1332,4,3,3,4,6,4,6,6,0,2,8,8,2,511,1899,
scooby_state_402c56|18|-1 1486,1,2,1,1,1,1,1,2,2,1,0,2,1,397,1899,
scooby_state_401384|24|1 1275,5,6,7,3,3,0,2,1,1,6,11,3,3,572,1898,
scooby_state_401384|35|1 1318,4,3,3,5,4,2,2,2,2,2,7,5,8,531,1898,
scooby_state_401384|58|1 1306,2,5,2,4,2,2,2,5,0,1,5,3,1,558,1898,
scooby_state_401384|40|1 1275,7,2,8,4,1,3,6,0,2,2,8,6,4,570,1898,
scooby_state_401384|31|1 1347,6,3,5,5,5,3,2,3,2,2,7,6,8,493,1897,
scooby_state_401384|9|1 1321,2,5,4,5,0,3,5,1,6,5,9,2,5,524,1897,
scooby_state_401384|4|1 1274,3,3,6,2,4,3,1,2,3,5,7,3,4,577,1897,
scooby_state_401384|15|1 1249,4,6,5,5,6,2,4,1,4,4,5,2,7,593,1897,
scooby_state_401384|2|1 1339,3,3,3,6,2,3,0,2,2,2,5,5,3,518,1896,
scooby_state_401384|10|1 1323,1,6,1,3,4,6,3,1,2,2,7,6,5,524,1894,
scooby_state_401384|51|1 1259,1,0,4,2,3,4,4,3,4,3,6,8,7,584,1892,
scooby_state_401384|36|1 1225,3,6,3,5,4,0,10,2,3,6,6,2,4,612,1891,
scooby_state_401384|61|1 1330,2,5,6,9,4,4,1,3,4,3,7,4,3,505,1890,
scooby_state_402c50|45|1 0,1,0,1,0,0,0,0,0,0,0,1885,0,0,1,1888,
scooby_state_401384|42|1 1248,6,2,2,1,3,7,2,2,0,2,5,5,7,594,1886,
scooby_state_401384|56|1 1234,4,7,1,3,4,3,6,5,1,3,6,1,4,603,1885,
scooby_state_401384|57|1 1332,5,1,4,5,2,4,1,2,5,5,7,2,4,506,1885,
scooby_state_401384|26|1 1336,7,6,3,1,5,2,4,2,3,4,4,3,0,505,1885,
scooby_state_401384|59|1 1261,3,5,2,6,6,4,1,4,4,3,4,7,5,570,1885,
scooby_state_401384|6|1 1307,4,1,4,1,3,5,5,2,3,2,4,6,6,530,1883,
scooby_state_401384|43|1 1345,7,2,7,5,3,2,1,1,3,3,8,4,9,482,1882,
scooby_state_401384|63|1 1283,2,4,5,3,3,6,2,4,4,3,14,4,2,543,1882,
scooby_state_401384|3|1 1257,1,5,3,3,6,2,6,2,4,5,8,2,4,573,1881,
scooby_state_401384|32|1 1295,3,6,3,4,4,3,1,3,3,4,5,5,6,535,1880,
scooby_state_401384|54|1 1300,3,3,2,1,3,3,3,1,4,9,6,4,3,534,1879,
scooby_state_401384|30|1 1317,1,7,5,3,0,4,0,2,4,2,4,2,3,524,1878,
scooby_state_401384|18|1 1299,3,6,5,1,3,3,4,6,5,2,7,3,3,527,1877,
scooby_state_401384|60|1 1260,5,4,5,2,5,3,2,2,2,2,4,5,11,564,1876,
scooby_state_401384|29|1 1321,3,6,1,2,4,3,7,2,4,1,7,2,4,508,1875,
scooby_state_401384|17|1 1289,3,4,4,6,3,2,5,2,1,2,5,4,6,538,1874,
scooby_state_401384|11|1 1245,2,6,6,3,8,4,0,3,3,3,9,3,2,577,1874,
scooby_state_402c4c|19|0 0,0,0,0,0,2,1,2,0,1,2,1864,0,0,0,1872,
scooby_state_401384|34|1 1284,3,3,1,3,4,5,5,2,3,2,4,0,3,550,1872,
scooby_state_401384|20|1 1315,4,5,4,4,4,9,1,3,3,3,4,6,2,504,1871,
scooby_state_401384|53|1 1323,5,2,4,3,2,1,1,6,3,2,3,4,5,506,1870,
scooby_state_401384|19|1 1237,3,4,5,1,4,6,1,3,4,2,8,4,5,579,1866,
scooby_state_401384|38|1 1255,2,3,4,1,3,1,4,5,1,4,4,5,6,566,1864,
scooby_state_401384|23|1 1273,2,3,1,6,8,4,5,2,2,3,7,4,6,538,1864,
scooby_state_401384|1|1 1236,7,5,3,6,4,5,2,3,2,3,7,4,9,567,1863,
scooby_state_403709|34|0 1769,6,4,6,8,6,6,6,4,5,7,12,5,6,13,1863,
scooby_state_403710|30|0 1832,2,0,3,2,2,2,1,2,2,2,2,1,2,8,1863,
scooby_state_402c50|5|1 1,1,0,1,0,0,0,0,1,0,0,1857,0,0,0,1861,
scooby_state_401384|45|1 1266,3,5,5,1,3,4,2,1,4,3,4,2,5,552,1860,
scooby_state_401384|39|1 1232,4,3,5,4,5,4,4,2,3,2,8,5,5,573,1859,
scooby_state_401384|12|1 1253,5,4,5,6,3,8,3,3,1,1,8,2,3,554,1859,
scooby_state_401384|44|1 1249,4,7,2,5,5,2,3,2,3,4,3,4,4,558,1855,
scooby_state_401384|13|1 1293,5,7,1,0,5,4,5,4,3,9,11,6,4,497,1854,
scooby_state_401384|21|1 1225,2,8,2,2,5,4,6,2,1,1,11,5,3,577,1854,
scooby_state_403709|30|0 1819,3,3,2,2,2,1,1,2,0,2,3,3,2,6,1851,
scooby_state_401384|55|1 1258,7,3,4,7,5,5,3,2,1,3,7,3,5,538,1851,
scooby_state_403702|44|0 1795,1,2,2,2,2,3,1,1,2,3,26,2,3,5,1850,
scooby_state_401384|33|1 1300,5,6,5,1,3,1,1,3,2,2,4,5,5,503,1846,
scooby_state_401384|48|1 1296,4,6,1,5,3,1,4,1,4,3,3,6,1,507,1845,
scooby_state_401384|62|1 1272,1,5,8,6,1,1,3,5,2,3,3,2,4,529,1845,
scooby_state_401384|28|1 1270,2,3,5,5,6,6,2,3,3,2,3,4,6,518,1838,
scooby_state_401384|8|1 1246,7,4,5,3,3,3,5,3,3,4,5,6,2,537,1836,
scooby_state_401384|16|1 1276,0,4,4,2,7,3,4,4,3,1,7,3,3,512,1833,
scooby_state_401384|46|1 1254,5,7,6,3,5,3,3,6,4,4,3,3,3,523,1832,
scooby_state_401384|27|1 1343,1,3,6,4,3,3,4,2,3,3,8,3,5,438,1829,
scooby_state_403702|57|0 1794,0,0,0,0,1,0,0,0,1,1,30,0,0,1,1828,
scooby_state_401384|7|1 1203,4,6,5,4,4,1,1,3,4,5,0,5,8,570,1823,
scooby_state_401384|41|1 1238,2,3,2,5,6,4,3,6,5,3,6,5,2,532,1822,
scooby_state_401384|52|1 1183,3,8,5,4,1,4,4,2,3,2,4,3,5,587,1818,
scooby_state_402c50|16|1 0,0,0,1,1,0,1,0,1,0,0,1805,1,0,1,1811,
scooby_state_401384|50|1 1217,6,5,2,3,4,1,3,3,5,2,9,3,5,541,1809,
scooby_state_402c50|26|1 0,1,0,0,0,0,0,0,0,0,0,1808,0,0,0,1809,
scooby_state_403702|31|0 1771,1,1,1,3,0,2,0,2,0,1,22,1,1,2,1808,
scooby_state_401384|25|1 1250,5,5,9,5,1,5,6,3,3,0,5,5,7,482,1791,
scooby_state_403709|39|0 1725,7,3,3,3,4,3,3,4,2,1,7,4,3,9,1781,
scooby_state_403702|60|0 1736,0,3,2,2,1,2,0,2,1,2,24,1,2,3,1781,
scooby_state_402c8c|62|0 1776,0,0,0,0,0,0,2,0,0,0,0,0,0,0,1778,
scooby_state_403709|62|0 1714,3,3,4,2,3,5,4,2,1,1,4,3,4,5,1758,
scooby_state_403709|16|0 1729,1,3,2,2,1,2,0,1,0,0,2,0,2,8,1753,
scooby_state_403709|19|0 1700,3,4,4,3,2,4,1,3,2,3,2,4,4,12,1751,
scooby_state_403710|51|0 1687,5,5,4,4,4,3,6,5,2,3,2,4,3,12,1749,
scooby_state_402c4c|8|1 0,0,0,1,1,0,0,0,0,0,0,1736,0,0,1,1739,
scooby_state_402c4c|4|0 1,0,0,0,0,0,0,0,0,0,0,1725,0,0,0,1726,
scooby_state_403710|14|0 1687,3,1,2,3,2,3,3,2,1,2,0,2,3,2,1716,
scooby_state_403702|12|0 1630,2,3,4,4,5,4,4,4,3,2,25,7,4,9,1710,
scooby_state_403702|46|0 1653,1,2,1,1,1,1,1,1,1,1,18,1,1,4,1688,
scooby_state_402cbc|25|0 1683,0,0,1,0,0,0,1,0,0,0,1,0,0,0,1686,
scooby_state_402cbc|4|0 1682,1,0,0,0,0,0,0,0,0,0,0,0,0,0,1683,
scooby_state_402c4c|16|1 0,0,1,0,2,1,2,0,1,1,1,1670,0,1,1,1681,
scooby_state_402c56|31|-1 1278,2,5,2,0,3,1,1,0,3,0,0,3,2,378,1678,
scooby_state_403702|62|0 1585,5,3,3,3,3,4,3,3,4,4,33,5,6,10,1674,
scooby_state_402c56|3|-1 754,2,3,1,0,2,1,0,0,2,1,1,2,3,899,1671,
scooby_state_402c50|4|0 0,1,0,0,0,1,0,1,0,1,0,1662,0,0,0,1666,
scooby_state_403709|49|0 1647,0,0,2,2,0,2,0,0,1,1,2,0,2,5,1664,
scooby_state_403702|33|0 1621,1,2,2,0,1,0,0,0,1,2,29,0,0,5,1664,
scooby_state_402c4c|26|0 1,0,0,0,2,0,0,0,0,0,0,1658,1,0,0,1662,
scooby_state_403702|23|0 1632,0,2,0,2,1,1,0,2,0,0,14,0,1,2,1657,
scooby_state_403710|52|0 1629,2,2,0,1,1,1,2,3,2,2,0,2,2,6,1655,
scooby_state_403710|23|0 1632,2,2,1,1,2,1,2,2,0,1,0,1,1,3,1651,
scooby_state_403709|57|0 1615,1,1,3,2,2,1,2,2,0,1,1,2,3,10,1646,
scooby_state_403702|52|0 1600,1,1,1,2,1,1,1,1,1,1,18,3,4,6,1642,
scooby_state_402c20|3|-1 1545,1,0,0,0,1,1,0,0,1,1,1,1,0,85,1637,
scooby_state_403709|56|0 1596,2,1,1,1,1,1,3,1,1,1,3,1,2,17,1632,
scooby_state_402c20|10|-1 1535,1,1,0,0,1,4,0,0,0,0,0,0,0,88,1630,
scooby_state_402c50|22|0 0,1,0,0,0,0,0,1,2,0,0,1624,2,0,0,1630,
scooby_state_403709|3|0 1599,2,2,0,1,4,0,2,3,0,0,4,3,2,8,1630,
scooby_state_402c4c|18|0 1,0,0,0,0,0,0,1,0,0,1,1625,0,1,0,1629,
scooby_state_403709|42|0 1613,0,0,1,1,0,0,0,0,0,1,1,0,0,10,1627,
scooby_state_402bb4|53|-1 1566,5,7,3,7,0,3,5,2,6,2,1,5,7,8,1627,
scooby_state_403709|51|0 1588,2,3,1,2,1,1,3,2,1,2,2,3,2,10,1623,
scooby_state_402cbc|54|0 1615,0,0,0,2,0,0,1,0,0,0,0,0,0,1,1619,
scooby_state_403709|26|0 1599,1,2,1,0,0,1,2,0,0,0,1,2,2,8,1619,
scooby_state_402c50|55|1 0,0,1,1,0,0,0,0,1,0,0,1613,0,0,0,1616,
scooby_state_402c20|44|-1 1501,0,0,0,0,1,1,1,0,1,1,1,0,1,97,1605,
scooby_state_402c8c|7|0 1595,0,1,0,0,0,1,0,0,0,0,0,0,1,0,1598,
scooby_state_403709|13|0 1537,2,3,4,4,1,3,3,0,3,1,5,2,4,11,1583,
scooby_state_403709|60|0 1546,3,1,2,1,1,2,1,1,3,2,1,2,1,7,1574,
scooby_state_403702|19|0 1529,2,2,2,3,2,2,1,2,1,1,17,2,2,3,1571,
scooby_state_403709|54|0 1529,3,2,1,3,2,1,0,1,0,1,2,1,1,13,1560,
scooby_state_403709|35|0 1514,2,3,2,3,2,2,2,2,3,1,4,4,2,7,1553,
scooby_state_402c4c|50|0 0,0,0,1,0,0,1,0,0,0,1,1544,0,0,0,1547,
scooby_state_403702|27|0 1508,1,2,0,1,0,1,0,1,0,1,22,0,0,5,1542,
scooby_state_403702|54|0 1470,3,2,2,4,2,3,3,3,2,2,25,5,4,8,1538,
scooby_state_403702|18|0 1488,2,1,2,3,2,2,1,4,1,1,19,2,2,4,1534,
scooby_state_403702|10|0 1505,0,1,0,1,1,1,0,2,0,0,16,2,1,3,1533,
scooby_state_403709|33|0 1490,1,1,1,3,0,1,0,2,3,4,3,4,0,13,1526,
scooby_state_402cbc|48|0 1502,1,0,0,0,0,0,0,0,0,0,0,0,0,1,1504,
scooby_state_402c50|49|1 0,0,0,0,0,1,0,0,0,1,1,1497,0,0,0,1500,
scooby_state_402c4c|46|1 0,0,0,0,1,1,1,0,0,1,0,1491,0,1,1,1497,
scooby_state_403702|0|0 1468,0,1,0,0,0,1,0,0,0,0,13,0,1,3,1487,
scooby_state_403709|5|0 1441,1,2,4,3,2,4,1,2,2,1,3,3,4,8,1481,
scooby_state_403709|43|0 1452,0,0,2,0,0,1,2,0,0,1,4,1,1,10,1474,
scooby_state_403702|14|0 1439,1,0,0,0,2,0,0,0,0,1,21,0,1,3,1468,
scooby_state_402c4c|6|0 0,1,0,0,0,1,0,0,0,0,0,1453,1,2,0,1458,
scooby_state_402c56|16|-1 306,0,1,1,2,0,1,1,1,1,1,0,2,2,1134,1453,
scooby_state_403709|58|0 1387,5,4,4,2,4,3,3,5,3,4,9,4,4,9,1450,
scooby_state_402c50|45|0 1,0,0,0,0,1,0,1,0,0,0,1443,0,0,0,1446,
scooby_state_403710|33|0 1362,5,5,5,6,7,5,7,6,6,6,5,6,4,10,1445,
scooby_state_402c4c|32|1 0,1,0,0,0,0,0,0,0,1,0,1440,1,0,2,1445,
scooby_state_402c4c|6|1 0,0,0,0,0,1,0,0,0,1,0,1432,0,0,1,1435,
scooby_state_402c50|54|1 0,0,1,0,0,0,1,0,0,0,1,1430,0,0,1,1434,
scooby_state_402cbc|39|0 1426,0,2,0,0,0,0,0,0,0,0,0,2,0,1,1431,
scooby_state_403702|45|0 1416,0,0,1,0,0,0,0,0,0,1,6,2,0,0,1426,
scooby_state_403709|50|0 1401,1,2,1,1,1,1,1,1,0,1,0,0,3,9,1423,
scooby_state_403709|55|0 1403,2,1,1,0,1,2,1,2,0,0,3,0,1,5,1422,
scooby_state_402c4c|29|1 1,0,0,0,1,1,1,0,0,1,0,1412,1,0,1,1419,
scooby_state_402c56|52|-2 650,1,1,2,1,1,1,0,1,1,3,2,2,1,744,1411,
scooby_state_402c50|11|0 1,0,1,1,0,0,1,0,0,0,0,1406,0,0,0,1410,
scooby_state_403709|15|0 1382,3,2,2,1,1,1,0,0,0,0,3,3,2,9,1409,
scooby_state_402c56|25|-1 502,0,0,1,0,0,0,0,1,0,0,0,0,3,901,1408,
scooby_state_403702|9|0 1392,0,0,1,0,0,1,0,0,0,0,7,0,1,3,1405,
scooby_state_403710|57|0 1348,6,3,4,3,2,3,3,3,3,3,2,5,5,8,1401,
scooby_state_403709|59|0 1357,0,2,2,0,1,1,2,2,3,5,5,4,3,14,1401,
scooby_state_402c50|40|1 0,2,1,1,0,0,0,1,1,0,0,1392,0,0,0,1398,
scooby_state_402cbc|53|0 1392,0,1,2,0,1,0,0,0,0,0,1,0,0,0,1397,
scooby_state_402c4c|1|0 0,0,0,0,1,0,3,0,0,2,0,1390,0,1,0,1397,
scooby_state_403702|61|0 1358,1,1,0,2,0,1,0,1,0,1,21,2,1,4,1393,
scooby_state_403710|46|0 1353,5,3,2,3,2,4,3,2,2,3,1,3,3,3,1392,
scooby_state_403702|6|0 1368,0,0,0,1,0,1,0,1,0,0,12,1,2,3,1389,
scooby_state_402c50|10|1 1,0,0,1,0,0,0,0,1,1,0,1383,0,1,0,1388,
scooby_state_4036ff|60|0 1351,0,1,3,0,3,3,2,1,1,0,8,4,3,3,1383,
scooby_state_403709|14|0 1367,0,0,0,2,0,0,0,0,2,2,1,0,0,9,1383,
scooby_state_402c4c|55|0 0,1,0,0,2,0,2,3,0,2,2,1359,0,1,1,1373,
scooby_state_402c50|50|0 0,0,0,0,0,1,1,0,1,0,0,1362,0,0,0,1365,
scooby_state_403702|8|0 1340,0,0,0,1,0,0,0,2,0,0,18,0,1,1,1363,
scooby_state_402c50|27|0 0,0,1,0,0,0,0,0,0,0,1,1352,0,1,0,1355,
scooby_state_402e55|35|0 1080,20,21,19,19,19,15,22,18,13,14,12,18,22,41,1353,
scooby_state_402c56|0|-1 413,0,1,1,2,0,2,0,2,0,2,0,1,2,913,1339,
scooby_state_402c50|8|1 2,0,1,0,0,0,0,0,0,0,0,1323,0,0,0,1326,
scooby_state_403709|9|0 1285,1,1,1,2,2,1,2,1,1,2,5,2,1,16,1323,
scooby_state_403709|0|0 1308,1,0,0,0,0,0,1,0,0,1,2,0,0,9,1322,
scooby_state_402cbc|12|0 1321,0,0,0,0,0,0,0,1,0,0,0,0,0,0,1322,
scooby_state_402c56|54|-1 339,2,3,1,1,2,1,3,2,5,1,1,0,1,954,1316,
scooby_state_402c8c|5|0 1310,1,0,0,0,0,0,0,2,0,1,1,0,0,0,1315,
scooby_state_403710|62|0 1258,4,3,2,3,4,4,5,4,2,5,2,4,5,9,1314,
scooby_state_402e55|35|-1 956,26,24,25,28,26,29,21,27,16,15,16,25,23,54,1311,
scooby_state_402c4c|34|1 0,0,3,0,0,1,0,2,0,0,1,1301,1,0,1,1310,
scooby_state_403702|16|0 1264,2,2,1,1,1,1,1,1,2,3,20,2,3,3,1307,
scooby_state_403702|13|0 1277,0,1,0,1,0,0,0,1,0,0,20,0,0,4,1304,
scooby_state_402c4c|55|1 0,1,1,0,0,1,1,0,0,1,0,1295,0,0,1,1301,
scooby_state_402c50|58|1 0,1,1,2,0,0,0,0,0,1,0,1295,0,0,0,1300,
scooby_state_403702|22|0 1265,1,1,1,1,1,3,2,1,2,1,14,1,2,2,1298,
scooby_state_403702|29|0 1271,0,0,0,0,0,0,0,1,1,1,15,0,0,1,1290,
scooby_state_401380|20|1 856,5,5,2,4,7,2,4,1,2,4,3,1,5,386,1287,
scooby_state_401380|13|1 913,1,6,3,3,2,6,0,2,2,6,7,3,2,331,1287,
scooby_state_401380|59|1 993,4,1,5,6,2,1,3,2,1,2,5,3,2,257,1287,
scooby_state_402c56|30|-2 622,0,0,1,0,0,0,0,0,1,0,0,1,1,661,1287,
scooby_state_401380|52|1 951,3,6,5,4,2,4,1,0,1,4,8,1,6,291,1287,
scooby_state_401380|33|1 873,3,5,5,3,3,2,1,2,2,4,8,3,3,370,1287,
scooby_state_401380|12|1 902,0,6,8,2,2,2,5,3,0,2,9,1,3,342,1287,
scooby_state_401380|51|1 875,1,7,2,6,5,2,4,4,3,0,8,6,4,360,1287,
scooby_state_401380|46|1 904,7,3,6,3,1,6,5,2,2,3,4,3,2,336,1287,
scooby_state_401380|38|1 902,5,4,3,4,4,2,3,1,2,2,4,6,1,344,1287,
scooby_state_401380|25|1 862,2,4,7,4,1,4,5,4,3,2,9,3,4,373,1287,
scooby_state_401380|7|1 867,5,0,7,3,3,8,3,1,2,4,15,3,3,363,1287,
scooby_state_401380|8|1 868,4,2,6,6,4,2,3,4,4,2,3,4,3,372,1287,
scooby_state_403702|20|0 1240,3,2,2,2,2,2,3,2,2,2,14,2,2,5,1285,
scooby_state_402c56|17|-1 516,2,2,0,1,1,0,0,0,0,0,0,2,3,757,1284,
scooby_state_402cbc|9|0 1279,0,0,0,0,0,0,0,0,0,0,0,0,0,0,1279,
scooby_state_403709|20|0 1265,1,2,1,1,1,1,0,0,0,0,0,0,2,4,1278,
scooby_state_4037d3|57|0 1128,11,5,9,9,6,6,12,12,12,10,12,21,7,17,1277,
scooby_state_401380|60|1 851,5,5,4,4,3,2,4,3,1,3,4,3,7,375,1274,
scooby_state_401380|55|1 927,2,2,7,2,4,3,2,7,2,2,9,3,0,302,1274,
scooby_state_401380|43|1 863,1,1,7,3,7,5,4,6,2,3,3,7,6,356,1274,
scooby_state_401380|34|1 839,1,5,4,3,5,3,4,1,2,4,14,2,5,382,1274,
scooby_state_401380|14|1 843,9,4,2,4,2,1,0,2,5,2,4,3,6,387,1274,
scooby_state_401380|57|1 801,2,4,3,2,3,4,1,4,6,5,6,2,1,430,1274,
scooby_state_401380|37|1 863,0,8,6,4,0,4,3,4,4,1,2,2,7,366,1274,
scooby_state_401380|31|1 923,3,3,6,5,6,3,1,1,2,3,10,1,5,302,1274,
scooby_state_401380|40|1 919,4,1,1,6,6,4,5,4,3,4,9,1,2,305,1274,
scooby_state_401380|6|1 883,4,2,5,3,0,1,3,3,3,1,2,6,5,353,1274,
scooby_state_401380|35|1 832,6,3,7,4,1,2,5,0,4,0,7,4,4,395,1274,
scooby_state_401380|18|1 890,2,3,3,3,3,3,4,2,0,2,2,5,5,347,1274,
scooby_state_401380|3|1 865,1,3,7,1,7,7,5,0,3,2,4,4,4,361,1274,
scooby_state_401380|5|1 839,4,6,6,2,3,3,3,3,2,0,4,2,4,393,1274,
scooby_state_401380|61|1 867,4,6,4,3,1,6,4,2,6,2,8,3,2,356,1274,
scooby_state_401380|54|1 880,6,3,2,6,3,5,2,2,2,3,6,3,3,348,1274,
scooby_state_401380|28|1 847,6,3,5,3,3,3,2,2,3,3,7,6,3,378,1274,
scooby_state_401380|15|1 907,4,4,4,6,1,2,6,4,3,1,10,6,3,313,1274,
scooby_state_401380|32|1 846,4,5,7,4,1,1,2,2,2,4,6,5,2,383,1274,
scooby_state_401380|48|1 822,2,1,6,9,3,2,3,4,6,2,5,1,5,403,1274,
scooby_state_401380|11|1 823,2,9,4,3,8,3,2,3,3,3,6,2,3,400,1274,
scooby_state_401380|9|1 936,2,2,9,4,3,2,4,5,3,0,3,2,4,295,1274,
scooby_state_401380|45|1 869,6,7,5,6,3,3,4,4,0,6,9,1,1,350,1274,
scooby_state_401380|16|1 812,3,4,1,7,6,1,5,5,0,2,8,0,8,412,1274,
scooby_state_401380|21|1 877,3,2,4,4,2,0,0,3,3,4,4,1,5,362,1274,
scooby_state_401380|19|1 884,1,3,4,7,5,4,0,2,2,2,6,7,7,340,1274,
scooby_state_401380|41|1 885,3,5,8,3,4,2,2,6,1,0,8,4,4,339,1274,
scooby_state_401380|1|1 868,4,1,4,4,7,4,4,3,0,3,5,4,5,358,1274,
scooby_state_401380|30|1 848,5,6,3,0,3,4,4,6,2,3,8,3,4,375,1274,
scooby_state_401380|53|1 901,2,3,3,1,2,5,3,3,4,1,7,1,2,336,1274,
scooby_state_401380|2|1 851,2,4,1,3,1,2,2,4,6,1,5,7,5,380,1274,
scooby_state_401380|42|1 875,5,3,4,3,1,3,4,4,4,2,9,3,2,352,1274,
scooby_state_401380|10|1 851,3,2,3,5,0,3,1,8,3,3,1,3,4,384,1274,
scooby_state_401380|27|1 838,6,4,6,7,2,4,2,2,1,4,9,7,3,379,1274,
scooby_state_401380|44|1 867,10,6,8,4,2,4,3,1,5,3,3,3,6,349,1274,
scooby_state_401380|39|1 855,2,4,7,8,1,7,2,4,0,3,3,5,8,365,1274,
scooby_state_401380|58|1 875,4,1,8,1,4,6,4,5,1,1,4,2,1,357,1274,
scooby_state_401380|17|1 918,3,4,3,3,1,4,5,3,1,1,7,1,2,318,1274,
scooby_state_401380|22|1 914,1,2,3,5,4,2,3,1,1,4,9,4,5,316,1274,
scooby_state_401380|26|1 811,3,2,4,4,4,4,6,2,1,7,7,1,2,416,1274,
scooby_state_401380|24|1 844,6,5,6,5,3,5,2,5,3,4,0,6,2,378,1274,
scooby_state_401380|49|1 855,4,1,1,7,4,2,4,3,0,5,3,3,2,380,1274,
scooby_state_401380|36|1 856,4,2,3,4,0,1,1,4,1,2,5,6,4,381,1274,
scooby_state_401380|23|1 834,5,7,3,4,2,0,1,3,3,1,11,5,4,391,1274,
scooby_state_401380|47|1 878,1,2,3,4,3,3,2,3,4,4,0,3,4,360,1274,
scooby_state_401380|56|1 890,0,3,5,4,3,1,1,3,2,2,4,3,3,350,1274,
scooby_state_401380|29|1 883,2,3,6,1,3,2,3,2,2,2,5,3,8,349,1274,
scooby_state_401380|50|1 889,3,4,9,2,1,1,3,2,2,3,2,3,3,347,1274,
scooby_state_401380|63|1 956,1,3,7,8,1,5,3,2,5,3,2,5,1,272,1274,
scooby_state_401380|4|1 836,4,5,1,3,5,5,5,3,2,5,3,3,1,393,1274,
scooby_state_401380|62|1 816,9,6,4,2,4,4,1,5,1,2,7,3,5,404,1273,
scooby_state_402c4c|17|0 0,2,0,0,0,0,1,0,0,0,1,1267,0,0,0,1271,
scooby_state_402c50|44|0 0,0,1,0,0,1,1,0,0,0,0,1265,0,0,0,1268,
scooby_state_403702|49|0 1230,3,2,2,1,2,2,3,2,2,1,9,2,2,3,1266,
scooby_state_403702|48|0 1198,3,2,3,3,3,2,3,2,4,3,21,4,4,8,1263,
scooby_state_402c50|13|1 1,0,0,0,0,0,0,0,0,0,1,1260,0,0,0,1262,
scooby_state_403709|47|0 1235,1,1,1,1,1,2,1,1,0,2,1,2,1,10,1260,
scooby_state_402c4c|41|1 0,0,0,0,1,0,1,0,1,1,0,1252,0,0,1,1257,
scooby_state_403709|8|0 1216,0,2,2,1,1,1,2,2,3,3,5,1,2,13,1254,
scooby_state_402c8c|31|0 1252,1,0,0,0,0,0,0,1,0,0,0,0,0,0,1254,
scooby_state_403702|39|0 1233,0,0,1,1,0,2,2,0,1,0,9,0,0,2,1251,
scooby_state_403702|58|0 1204,2,2,1,2,1,2,1,2,1,1,20,1,2,6,1248,
scooby_state_403709|38|0 1222,1,1,0,0,0,0,1,0,3,2,4,0,0,13,1247,
scooby_state_402c4c|39|1 0,0,0,0,0,0,0,0,0,0,0,1244,0,0,2,1246,
scooby_state_402c50|17|1 0,1,0,0,0,0,1,0,1,1,0,1234,0,0,1,1239,
scooby_state_402c8c|38|0 1234,1,0,0,0,2,0,0,0,0,1,0,0,0,0,1238,
scooby_state_402c50|57|0 0,0,0,0,0,0,0,0,1,0,0,1223,0,0,0,1224,
scooby_state_402c20|56|-1 1203,0,0,0,0,0,0,0,0,0,1,1,0,0,19,1224,
scooby_state_402c88|44|1 1,1,1,1,0,1,3,3,1,3,2,1,3,2,1197,1220,
scooby_state_402c50|46|1 0,0,1,1,0,0,0,0,1,0,0,1217,0,0,0,1220,
scooby_state_402cbc|45|0 1214,0,0,0,0,1,0,0,2,1,0,0,0,0,0,1218,
scooby_state_403702|59|0 1189,0,0,0,1,0,1,1,1,0,0,18,0,1,5,1217,
scooby_state_402c56|43|-2 507,0,0,1,0,0,0,0,0,1,0,0,2,1,699,1211,
scooby_state_402c50|34|1 0,1,1,1,0,1,0,0,0,0,0,1206,0,0,0,1210,
scooby_state_402c4c|24|1 0,0,0,0,0,1,0,2,0,0,2,1204,0,0,1,1210,
scooby_state_403710|59|0 1141,5,3,4,6,6,5,5,5,4,4,4,5,3,9,1209,
scooby_state_402c4c|53|1 1,0,0,0,0,0,0,2,0,0,2,1198,0,0,1,1204,
scooby_state_403709|24|0 1184,0,1,1,1,0,1,1,1,0,0,1,1,1,6,1199,
scooby_state_40301f|52|-2 890,139,37,15,11,7,9,9,9,9,9,9,13,14,17,1197,
scooby_state_402c50|21|0 0,0,0,0,0,0,1,0,0,0,1,1194,0,0,0,1196,
scooby_state_402bc1|45|0 951,0,0,0,0,0,1,3,0,2,0,235,0,0,0,1192,
scooby_state_403710|49|0 1178,1,0,0,1,0,0,0,1,2,0,0,3,1,2,1189,
scooby_state_402c50|37|1 1,1,0,0,0,0,0,0,0,0,0,1183,0,1,0,1186,
scooby_state_402cbc|16|0 1179,0,0,0,0,0,0,0,0,0,1,0,1,1,0,1182,
scooby_state_403702|1|0 1174,0,0,0,0,1,0,0,0,0,0,5,0,0,1,1181,
scooby_state_403702|51|0 1151,1,1,0,1,0,1,1,1,1,1,14,1,1,2,1177,
scooby_state_402c20|35|-2 1140,0,0,0,0,0,0,0,0,0,1,6,0,1,26,1174,
scooby_state_403702|7|0 1148,0,0,1,1,1,2,0,1,0,1,16,1,0,1,1173,
scooby_state_402c4c|3|1 0,0,1,0,1,1,2,0,0,1,0,1164,0,0,1,1171,
scooby_state_402c50|17|0 0,2,0,0,0,0,0,0,0,0,0,1165,0,0,0,1167,
scooby_state_402c20|49|-2 1113,0,0,0,0,0,0,0,0,0,0,2,0,1,44,1160,
scooby_state_403709|17|0 1134,1,3,1,2,1,0,2,1,0,1,3,1,3,7,1160,
scooby_state_403709|31|0 1149,0,0,0,2,0,0,0,1,1,0,1,2,1,2,1159,
scooby_state_403709|45|0 1101,3,3,4,3,2,3,4,3,2,4,7,4,4,8,1155,
scooby_state_403709|11|0 1078,6,2,5,6,4,3,5,3,5,7,6,2,3,17,1152,
scooby_state_403702|50|0 1119,1,1,2,1,2,1,1,1,1,1,14,1,1,4,1151,
scooby_state_402c4c|22|0 0,0,0,0,0,0,0,0,0,0,0,1150,0,0,0,1150,
scooby_state_402cb8|21|1 1,0,1,0,0,0,0,1,0,0,0,0,0,1,1145,1149,
scooby_state_402c50|51|0 0,0,0,0,0,2,1,3,0,0,0,1143,0,0,0,1149,
scooby_state_403702|26|0 1118,0,0,1,2,1,1,0,0,0,0,14,2,3,1,1143,
scooby_state_403702|17|0 1118,0,1,0,0,0,0,0,0,0,0,17,0,1,4,1141,
scooby_state_402c20|15|-2 1044,0,0,0,0,2,0,0,0,0,0,4,0,1,88,1139,
scooby_state_402c56|5|-1 241,1,2,0,1,0,1,0,1,1,0,1,2,2,885,1138,
scooby_state_402cbc|15|0 1135,0,0,0,0,0,0,0,2,0,0,0,0,0,0,1137,
scooby_state_402c20|43|-1 1110,0,0,0,0,0,0,0,1,1,1,0,0,1,20,1134,
scooby_state_403709|7|0 1116,0,0,1,2,1,1,0,0,0,0,2,3,1,3,1130,
scooby_state_402c8c|23|0 1122,1,0,2,0,0,0,0,0,0,0,1,0,0,1,1127,
scooby_state_402c4c|44|1 1,0,0,0,1,0,3,0,0,3,0,1115,1,1,0,1125,
scooby_state_402c4c|42|1 0,0,0,0,1,0,2,1,0,2,1,1115,0,0,1,1123,
scooby_state_403709|48|0 1097,1,1,2,1,1,1,2,1,1,0,3,3,1,8,1123,
scooby_state_403709|52|0 1070,6,1,3,4,3,3,4,2,2,1,7,1,1,14,1122,
scooby_state_40301f|53|-3 857,63,50,18,11,10,11,7,10,8,10,31,10,10,14,1120,
scooby_state_403702|47|0 1087,2,1,1,1,1,2,1,2,1,2,15,1,1,2,1120,
scooby_state_402c8c|2|0 1118,0,0,0,0,0,0,0,0,0,0,0,1,0,0,1119,
scooby_state_402c56|21|-1 215,0,1,0,0,1,0,0,0,0,0,0,1,1,900,1119,
scooby_state_402c20|20|-2 1109,0,0,0,0,0,0,0,0,1,0,5,0,0,3,1118,
scooby_state_403710|55|0 1106,3,1,2,0,1,0,0,0,0,0,0,2,1,2,1118,
scooby_state_402c20|20|-1 1084,1,0,0,0,1,1,0,1,2,1,0,0,1,26,1118,
scooby_state_403709|18|0 1091,2,1,2,0,1,1,2,2,0,0,1,0,2,7,1112,
scooby_state_402c4c|13|1 0,0,0,0,0,0,0,1,0,0,1,1105,0,0,0,1107,
scooby_state_402c20|61|-1 1069,2,0,0,0,1,0,0,2,1,1,0,2,1,27,1106,
scooby_state_403710|54|0 1070,2,1,3,2,3,2,2,3,2,2,2,2,3,5,1104,
scooby_state_402c4c|36|1 0,1,0,0,0,1,0,0,0,0,0,1098,0,0,1,1101,
scooby_state_403044|56|4 87,9,7,8,5,9,7,4,6,6,6,694,229,8,12,1097,
scooby_state_403702|55|0 1087,0,1,0,0,0,0,0,0,1,0,5,0,0,1,1095,
scooby_state_403709|61|0 1057,2,1,2,2,0,1,2,0,1,1,7,4,1,9,1090,
scooby_state_403710|0|0 1073,1,1,2,1,0,0,1,0,0,0,0,2,2,2,1085,
scooby_state_402c50|6|1 1,1,1,0,0,0,0,0,0,0,0,1079,0,0,0,1082,
scooby_state_402c20|25|-1 1053,0,1,0,0,1,1,0,0,1,1,0,1,1,21,1081,
scooby_state_402c8c|54|0 1073,0,1,0,2,0,0,0,0,0,0,0,1,0,0,1077,
scooby_state_402cb8|16|1 1,2,0,0,0,0,1,1,1,0,0,1,2,1,1062,1072,
scooby_state_402c4c|12|1 0,0,0,0,1,0,1,0,0,1,0,1069,0,0,0,1072,
scooby_state_403702|63|0 1040,1,1,1,1,1,2,1,2,1,1,13,2,1,3,1071,
scooby_state_402cbc|33|0 1060,0,0,0,1,0,0,0,1,0,0,0,0,0,0,1062,
scooby_state_403709|40|0 1041,0,3,1,0,1,0,1,0,0,0,3,2,1,7,1060,
scooby_state_402c4c|52|1 0,0,0,0,1,0,2,0,0,1,0,1048,0,0,2,1054,
scooby_state_403702|41|0 1027,0,0,0,1,0,0,0,0,1,0,18,0,0,0,1047,
scooby_state_403702|35|0 1029,0,0,1,0,0,0,0,1,0,0,15,0,0,1,1047,
scooby_state_402c20|24|-1 1017,1,0,0,1,0,0,0,0,1,1,0,0,1,20,1042,
scooby_state_4036f7|54|1 973,5,4,3,3,3,1,4,4,4,2,24,4,4,4,1042,
scooby_state_402c8c|11|0 1041,0,0,0,0,0,0,0,0,0,0,0,0,0,1,1042,
scooby_state_402cbc|5|0 1040,0,0,0,0,0,0,0,0,0,0,0,0,0,0,1040,
scooby_state_402c50|29|1 0,5,0,2,0,0,1,0,0,0,0,1029,0,0,0,1037,
scooby_state_403044|55|2 65,10,8,10,8,8,8,8,8,8,7,772,94,8,14,1036,
scooby_state_403709|46|0 1015,2,0,1,2,0,1,1,1,1,1,1,1,1,6,1034,
scooby_state_403702|25|0 1014,0,0,0,0,0,0,0,0,0,0,15,0,0,2,1031,
scooby_state_4037c1|51|37 876,13,20,13,14,11,15,14,12,11,6,4,10,10,0,1029,
scooby_state_402c88|36|1 0,1,1,0,1,0,0,1,1,1,1,1,1,1,1018,1028,
scooby_state_402c4c|28|0 1,0,0,0,1,0,1,0,0,1,0,1018,1,0,0,1023,
scooby_state_402cbc|44|0 1019,0,0,0,0,0,0,0,1,1,0,0,1,0,0,1022,
scooby_state_402c56|23|-2 218,1,0,0,0,0,0,0,1,0,0,1,1,1,791,1014,
scooby_state_402c20|51|-2 921,0,0,0,0,1,0,1,0,0,0,4,0,0,83,1010,
scooby_state_402c8c|28|0 998,0,0,0,0,0,0,0,0,0,1,1,0,0,0,1000,
scooby_state_402c8c|33|0 993,0,1,0,0,0,0,1,0,1,0,0,0,0,0,996,
scooby_state_403709|10|0 977,1,3,1,1,0,1,1,1,2,0,1,2,1,4,996,
scooby_state_402c88|24|1 0,0,1,0,0,1,1,1,0,1,1,1,0,1,987,995,
scooby_state_402c50|37|0 1,0,0,0,0,0,0,0,0,0,0,992,0,0,0,993,
scooby_state_402c56|35|-2 293,2,0,1,0,0,1,1,2,1,1,2,2,1,681,988,
scooby_state_402c50|18|1 1,0,1,0,0,2,1,0,0,0,0,981,1,0,0,987,
scooby_state_402c20|3|-2 962,0,1,0,0,0,0,1,0,0,0,3,0,1,17,985,
scooby_state_403702|42|0 943,2,1,1,1,1,1,1,1,2,1,17,1,2,5,980,
scooby_state_402cbc|42|0 975,0,0,1,0,0,0,1,0,0,0,0,1,0,0,978,
scooby_state_403709|53|0 960,2,0,1,1,0,1,1,0,0,0,0,0,1,8,975,
scooby_state_402c50|43|1 0,0,1,0,0,0,0,0,0,0,0,973,0,0,0,974,
scooby_state_402c56|37|-1 42,2,2,0,0,0,0,2,1,2,0,0,0,0,919,970,
scooby_state_402c8c|51|0 967,0,0,0,0,0,0,1,0,0,0,0,0,0,1,969,
scooby_state_403709|23|0 953,0,1,1,0,0,1,1,0,0,1,1,1,1,2,963,
scooby_state_403709|22|0 934,3,1,1,1,1,1,2,1,1,3,4,1,1,6,961,
scooby_state_402c4c|38|0 0,0,1,0,0,0,0,0,0,0,0,957,0,0,0,958,
scooby_state_402c50|62|0 1,2,0,1,0,0,0,0,0,0,0,949,0,0,0,953,
scooby_state_402c56|14|-1 421,0,2,0,1,0,0,1,0,0,0,0,1,1,526,953,
scooby_state_403010|54|0 951,0,0,0,0,0,0,0,0,0,0,0,0,0,0,951,
scooby_state_402cbc|52|0 943,0,0,0,0,0,0,0,0,1,0,2,0,0,0,946,
scooby_state_402c50|46|0 0,1,1,1,0,0,0,0,1,1,0,940,0,0,0,945,
scooby_state_402c20|19|-1 915,0,0,0,0,1,0,1,0,1,1,0,0,2,23,944,
scooby_state_403702|2|0 908,1,2,1,1,1,1,2,1,1,2,14,1,1,4,941,
scooby_state_402c4c|37|0 0,1,1,0,0,0,0,0,0,0,0,929,0,1,0,932,
scooby_state_402c56|20|-1 210,1,1,0,0,0,0,0,0,1,0,1,1,2,715,932,
scooby_state_402c56|63|0 754,0,2,0,0,3,0,0,0,0,0,5,1,1,166,932,
scooby_state_403709|27|0 919,0,0,0,0,0,1,1,0,0,1,2,0,0,6,930,
scooby_state_402c56|16|-2 226,1,0,0,0,1,0,0,1,0,0,0,0,2,695,926,
[...]
scooby_state_402c4c|4|-31 0,0,0,0,0,0,0,0,0,0,0,1,0,0,0,1,
scooby_state_402c50|21|-36 0,0,0,0,0,0,0,0,0,0,0,1,0,0,0,1,
scooby_state_402b94|51|24 0,0,0,0,0,0,0,0,0,0,1,0,0,0,0,1,
scooby_state_403709|0|-32 1,0,0,0,0,0,0,0,0,0,0,0,0,0,0,1,
scooby_state_403709|39|17 0,0,0,0,0,0,0,0,0,0,0,1,0,0,0,1,
scooby_state_402cbc|27|17 1,0,0,0,0,0,0,0,0,0,0,0,0,0,0,1,
scooby_state_4037aa|43|5 1,0,0,0,0,0,0,0,0,0,0,0,0,0,0,1,
scooby_state_403710|17|-7 1,0,0,0,0,0,0,0,0,0,0,0,0,0,0,1,
scooby_state_402c50|54|12 0,0,0,0,0,0,0,0,0,0,0,1,0,0,0,1,
scooby_state_402c20|13|-18 1,0,0,0,0,0,0,0,0,0,0,0,0,0,0,1,
scooby_state_402cbc|10|-9 1,0,0,0,0,0,0,0,0,0,0,0,0,0,0,1,
scooby_state_4013ab|38|13 0,0,0,0,1,0,0,0,0,0,0,0,0,0,0,1,
scooby_state_4029f8|58|49 1,0,0,0,0,0,0,0,0,0,0,0,0,0,0,1,
scooby_state_402cbc|34|-24 1,0,0,0,0,0,0,0,0,0,0,0,0,0,0,1,
scooby_state_4037aa|11|4 1,0,0,0,0,0,0,0,0,0,0,0,0,0,0,1,
scooby_state_4029e0|16|-16 1,0,0,0,0,0,0,0,0,0,0,0,0,0,0,1,
scooby_state_402cbc|55|41 1,0,0,0,0,0,0,0,0,0,0,0,0,0,0,1,
scooby_state_403710|26|3 1,0,0,0,0,0,0,0,0,0,0,0,0,0,0,1,
scooby_state_4037aa|54|21 1,0,0,0,0,0,0,0,0,0,0,0,0,0,0,1,
scooby_state_402c50|7|-40 0,0,0,0,0,0,0,0,0,0,0,1,0,0,0,1,
scooby_state_402bb0|50|1 1,0,0,0,0,0,0,0,0,0,0,0,0,0,0,1,
scooby_state_402cbc|62|41 1,0,0,0,0,0,0,0,0,0,0,0,0,0,0,1,
scooby_state_402b94|58|46 0,0,0,0,0,0,0,0,0,0,1,0,0,0,0,1,
scooby_state_402c56|8|-48 1,0,0,0,0,0,0,0,0,0,0,0,0,0,0,1,
scooby_state_402c43|50|1 0,0,0,0,0,0,0,0,0,0,0,0,0,0,1,1,
scooby_state_4029e0|8|-45 1,0,0,0,0,0,0,0,0,0,0,0,0,0,0,1,
scooby_state_4029e0|42|32 1,0,0,0,0,0,0,0,0,0,0,0,0,0,0,1,
scooby_state_4037c1|12|-24 1,0,0,0,0,0,0,0,0,0,0,0,0,0,0,1,
scooby_state_402c4c|37|25 0,0,0,0,0,0,0,0,0,0,0,1,0,0,0,1,
scooby_state_402c8c|60|40 1,0,0,0,0,0,0,0,0,0,0,0,0,0,0,1,
scooby_state_402c4c|62|35 0,0,0,0,0,0,0,0,0,0,0,1,0,0,0,1,
scooby_state_402c50|15|8 0,0,0,0,0,0,0,0,0,0,0,1,0,0,0,1,
scooby_state_402c56|59|10 0,0,0,0,0,0,0,0,0,0,0,0,0,0,1,1,
scooby_state_402c2d|32|27 0,1,0,0,0,0,0,0,0,0,0,0,0,0,0,1,
scooby_state_402c20|9|-46 1,0,0,0,0,0,0,0,0,0,0,0,0,0,0,1,
scooby_state_402bb4|4|1 1,0,0,0,0,0,0,0,0,0,0,0,0,0,0,1,
scooby_state_4029e0|33|15 1,0,0,0,0,0,0,0,0,0,0,0,0,0,0,1,
scooby_state_4029e0|60|60 1,0,0,0,0,0,0,0,0,0,0,0,0,0,0,1,
scooby_state_4037c1|34|-23 1,0,0,0,0,0,0,0,0,0,0,0,0,0,0,1,
scooby_state_4029e0|5|-1 1,0,0,0,0,0,0,0,0,0,0,0,0,0,0,1,
scooby_state_4029d1|33|-2 0,1,0,0,0,0,0,0,0,0,0,0,0,0,0,1,
scooby_state_402c20|3|-43 1,0,0,0,0,0,0,0,0,0,0,0,0,0,0,1,
scooby_state_402c20|20|-21 1,0,0,0,0,0,0,0,0,0,0,0,0,0,0,1,
scooby_state_402c8c|36|-1 1,0,0,0,0,0,0,0,0,0,0,0,0,0,0,1,
scooby_state_402c4c|12|-16 0,0,0,0,0,0,0,0,0,0,0,1,0,0,0,1,
scooby_state_402bc5|54|22 1,0,0,0,0,0,0,0,0,0,0,0,0,0,0,1,
scooby_state_402c50|24|-6 0,0,0,0,0,0,0,0,0,0,0,1,0,0,0,1,
scooby_state_402c56|40|-3 0,1,0,0,0,0,0,0,0,0,0,0,0,0,0,1,
scooby_state_402c50|51|41 0,0,0,0,0,0,0,0,0,0,0,1,0,0,0,1,
scooby_state_4029e0|63|57 1,0,0,0,0,0,0,0,0,0,0,0,0,0,0,1,
scooby_state_402c4c|5|-4 0,0,0,0,0,0,0,0,0,0,0,1,0,0,0,1,
scooby_state_402c8c|38|8 1,0,0,0,0,0,0,0,0,0,0,0,0,0,0,1,
scooby_state_402c8c|54|23 1,0,0,0,0,0,0,0,0,0,0,0,0,0,0,1,
scooby_state_402cbc|16|8 1,0,0,0,0,0,0,0,0,0,0,0,0,0,0,1,
scooby_state_402b90|29|17 0,0,0,0,0,0,0,0,0,1,0,0,0,0,0,1,
scooby_state_4029e0|3|-17 1,0,0,0,0,0,0,0,0,0,0,0,0,0,0,1,
scooby_state_402c75|40|1 1,0,0,0,0,0,0,0,0,0,0,0,0,0,0,1,
scooby_state_4037aa|55|49 0,0,0,0,0,0,0,0,0,0,0,1,0,0,0,1,
scooby_state_402cbc|56|55 1,0,0,0,0,0,0,0,0,0,0,0,0,0,0,1,
scooby_state_402c50|35|2 0,0,0,0,0,0,0,0,0,0,0,1,0,0,0,1,
scooby_state_402c43|29|-1 0,0,1,0,0,0,0,0,0,0,0,0,0,0,0,1,
scooby_state_402cbc|48|-13 1,0,0,0,0,0,0,0,0,0,0,0,0,0,0,1,
scooby_state_4029e0|18|-17 1,0,0,0,0,0,0,0,0,0,0,0,0,0,0,1,
scooby_state_403702|30|-2 1,0,0,0,0,0,0,0,0,0,0,0,0,0,0,1,
scooby_state_402c4c|2|-18 0,0,0,0,0,0,0,0,0,0,0,1,0,0,0,1,
scooby_state_4037c1|7|-41 1,0,0,0,0,0,0,0,0,0,0,0,0,0,0,1,
scooby_state_402c8c|62|30 1,0,0,0,0,0,0,0,0,0,0,0,0,0,0,1,
scooby_state_4037aa|45|15 1,0,0,0,0,0,0,0,0,0,0,0,0,0,0,1,
scooby_state_402c4c|17|-15 0,0,0,0,0,0,0,0,0,0,0,1,0,0,0,1,
scooby_state_4029e0|47|23 1,0,0,0,0,0,0,0,0,0,0,0,0,0,0,1,
scooby_state_4036ff|61|12 1,0,0,0,0,0,0,0,0,0,0,0,0,0,0,1,
scooby_state_402cbc|5|-40 1,0,0,0,0,0,0,0,0,0,0,0,0,0,0,1,
scooby_state_402c8c|45|10 1,0,0,0,0,0,0,0,0,0,0,0,0,0,0,1,
scooby_state_402e26|42|0 1,0,0,0,0,0,0,0,0,0,0,0,0,0,0,1,
scooby_state_402cbc|22|-11 1,0,0,0,0,0,0,0,0,0,0,0,0,0,0,1,
scooby_state_402c56|46|16 0,0,0,0,0,0,0,0,0,0,0,0,0,0,1,1,
scooby_state_402c8c|37|-11 1,0,0,0,0,0,0,0,0,0,0,0,0,0,0,1,
scooby_state_403702|22|-37 1,0,0,0,0,0,0,0,0,0,0,0,0,0,0,1,
scooby_state_402c50|8|5 0,0,0,0,0,0,0,0,0,0,0,1,0,0,0,1,
scooby_state_402c8c|21|-30 1,0,0,0,0,0,0,0,0,0,0,0,0,0,0,1,
scooby_state_403709|40|-6 1,0,0,0,0,0,0,0,0,0,0,0,0,0,0,1,
scooby_state_402bb0|41|5 1,0,0,0,0,0,0,0,0,0,0,0,0,0,0,1,
scooby_state_402cbc|2|-49 1,0,0,0,0,0,0,0,0,0,0,0,0,0,0,1,
scooby_state_402c4c|47|-11 0,0,0,0,0,0,0,0,0,0,0,1,0,0,0,1,
scooby_state_40302b|52|48 1,0,0,0,0,0,0,0,0,0,0,0,0,0,0,1,
scooby_state_402c50|16|-14 0,0,0,0,0,0,0,0,0,0,0,1,0,0,0,1,
scooby_state_4029e0|55|30 1,0,0,0,0,0,0,0,0,0,0,0,0,0,0,1,
scooby_state_402b90|18|3 1,0,0,0,0,0,0,0,0,0,0,0,0,0,0,1,
scooby_state_402c50|47|4 0,0,0,0,0,0,0,0,0,0,0,1,0,0,0,1,
scooby_state_402b90|5|-14 0,0,0,0,0,0,0,0,0,0,0,1,0,0,0,1,
scooby_state_403710|35|15 1,0,0,0,0,0,0,0,0,0,0,0,0,0,0,1,
scooby_state_402c4c|13|-3 0,0,0,0,0,0,0,0,0,0,0,1,0,0,0,1,
scooby_state_402c50|0|-12 0,0,0,0,0,0,0,0,0,0,0,1,0,0,0,1,
scooby_state_402c8c|12|2 1,0,0,0,0,0,0,0,0,0,0,0,0,0,0,1,
scooby_state_402c4c|0|-41 0,0,0,0,0,0,0,0,0,0,0,1,0,0,0,1,
scooby_state_402c4c|26|15 0,0,0,0,0,0,0,0,0,0,0,1,0,0,0,1,
scooby_state_402c4c|30|-15 0,0,0,0,0,0,0,0,0,0,0,1,0,0,0,1,
scooby_state_4029e0|1|-52 1,0,0,0,0,0,0,0,0,0,0,0,0,0,0,1,
scooby_state_402cbc|5|-47 1,0,0,0,0,0,0,0,0,0,0,0,0,0,0,1,
scooby_state_4037aa|47|12 1,0,0,0,0,0,0,0,0,0,0,0,0,0,0,1,
scooby_state_402c50|58|11 0,0,0,0,0,0,0,0,0,0,0,1,0,0,0,1,
scooby_state_4029e0|21|-23 1,0,0,0,0,0,0,0,0,0,0,0,0,0,0,1,
scooby_state_402c8c|36|2 1,0,0,0,0,0,0,0,0,0,0,0,0,0,0,1,
scooby_state_402c20|14|-10 1,0,0,0,0,0,0,0,0,0,0,0,0,0,0,1,
scooby_state_4029e0|6|-19 1,0,0,0,0,0,0,0,0,0,0,0,0,0,0,1,
scooby_state_402c8c|15|-25 1,0,0,0,0,0,0,0,0,0,0,0,0,0,0,1,
scooby_state_402c50|24|16 0,0,0,0,0,0,0,0,0,0,0,1,0,0,0,1,
scooby_state_40304c|37|13 1,0,0,0,0,0,0,0,0,0,0,0,0,0,0,1,
scooby_state_402bb0|6|-52 0,0,0,0,0,0,1,0,0,0,0,0,0,0,0,1,
scooby_state_402c20|15|-11 1,0,0,0,0,0,0,0,0,0,0,0,0,0,0,1,
scooby_state_402c50|12|-49 0,0,0,0,0,0,0,0,0,0,0,1,0,0,0,1,
scooby_state_403709|17|-14 1,0,0,0,0,0,0,0,0,0,0,0,0,0,0,1,
scooby_state_402bc5|62|-1 1,0,0,0,0,0,0,0,0,0,0,0,0,0,0,1,
scooby_state_4029e0|37|-16 1,0,0,0,0,0,0,0,0,0,0,0,0,0,0,1,
scooby_state_403710|31|13 1,0,0,0,0,0,0,0,0,0,0,0,0,0,0,1,
scooby_state_4037c1|12|-14 0,0,0,0,0,1,0,0,0,0,0,0,0,0,0,1,
scooby_state_402c50|25|6 0,0,0,0,0,0,0,0,0,0,0,1,0,0,0,1,
scooby_state_402c43|55|1 0,0,0,0,0,0,0,0,0,0,0,1,0,0,0,1,
scooby_state_4013b2|30|-2 1,0,0,0,0,0,0,0,0,0,0,0,0,0,0,1,
scooby_state_402c4c|46|-1 0,0,0,0,0,0,0,0,0,0,0,1,0,0,0,1,
scooby_state_4037aa|30|22 1,0,0,0,0,0,0,0,0,0,0,0,0,0,0,1,
scooby_state_402a50|52|0 0,1,0,0,0,0,0,0,0,0,0,0,0,0,0,1,
scooby_state_4037aa|51|30 1,0,0,0,0,0,0,0,0,0,0,0,0,0,0,1,
scooby_state_402c4c|40|-2 0,0,0,0,0,0,0,0,0,0,0,1,0,0,0,1,
scooby_state_4037c1|15|-38 1,0,0,0,0,0,0,0,0,0,0,0,0,0,0,1,
scooby_state_402cbc|56|25 1,0,0,0,0,0,0,0,0,0,0,0,0,0,0,1,
scooby_state_402c50|63|52 0,0,0,0,0,0,0,0,0,0,0,1,0,0,0,1,
scooby_state_402c4c|21|-26 0,0,0,0,0,0,0,0,0,0,0,1,0,0,0,1,
scooby_state_402c4c|0|-5 0,0,0,0,0,0,0,0,0,0,0,1,0,0,0,1,
scooby_state_4037aa|40|16 1,0,0,0,0,0,0,0,0,0,0,0,0,0,0,1,
scooby_state_403710|16|-29 0,0,0,0,1,0,0,0,0,0,0,0,0,0,0,1,
scooby_state_402c50|41|8 0,0,0,0,0,0,0,0,0,0,0,1,0,0,0,1,
scooby_state_4029e0|50|-13 1,0,0,0,0,0,0,0,0,0,0,0,0,0,0,1,
scooby_state_4029e0|59|52 0,0,0,0,0,0,0,0,0,0,0,1,0,0,0,1,
scooby_state_402cbc|31|13 1,0,0,0,0,0,0,0,0,0,0,0,0,0,0,1,
scooby_state_402dca|27|-4 1,0,0,0,0,0,0,0,0,0,0,0,0,0,0,1,
scooby_state_402c20|52|-6 0,0,0,0,0,0,0,0,0,0,0,1,0,0,0,1,
scooby_state_402cbc|14|12 1,0,0,0,0,0,0,0,0,0,0,0,0,0,0,1,
scooby_state_4036ff|5|-47 0,0,0,0,0,0,0,0,0,1,0,0,0,0,0,1,
scooby_state_4013dc|39|-9 1,0,0,0,0,0,0,0,0,0,0,0,0,0,0,1,
scooby_state_403851|5|-15 0,0,0,0,0,0,0,0,0,0,0,1,0,0,0,1,
scooby_state_4037c1|14|-9 1,0,0,0,0,0,0,0,0,0,0,0,0,0,0,1,
scooby_state_402cbc|19|-6 1,0,0,0,0,0,0,0,0,0,0,0,0,0,0,1,
scooby_state_402c50|23|16 0,0,0,0,0,0,0,0,0,0,0,1,0,0,0,1,
scooby_state_402c50|16|-30 0,0,0,0,0,0,0,0,0,0,0,1,0,0,0,1,
scooby_state_402c4c|49|16 0,0,0,0,0,0,0,0,0,0,0,1,0,0,0,1,
scooby_state_4036ff|11|-41 0,0,0,0,0,0,0,0,0,0,0,1,0,0,0,1,
scooby_state_402cbc|53|22 1,0,0,0,0,0,0,0,0,0,0,0,0,0,0,1,
scooby_state_402e17|57|0 0,0,0,0,1,0,0,0,0,0,0,0,0,0,0,1,
scooby_state_402c4c|10|-7 0,0,0,0,0,0,0,0,0,0,0,1,0,0,0,1,
scooby_state_4029e0|8|-33 1,0,0,0,0,0,0,0,0,0,0,0,0,0,0,1,
scooby_state_402c8c|50|30 1,0,0,0,0,0,0,0,0,0,0,0,0,0,0,1,
scooby_state_402c4c|59|57 0,0,0,0,0,0,0,0,0,0,0,1,0,0,0,1,
scooby_state_402bc1|61|16 1,0,0,0,0,0,0,0,0,0,0,0,0,0,0,1,
scooby_state_402c4c|13|-8 0,0,0,0,0,0,0,0,0,0,0,1,0,0,0,1,
scooby_state_4029e0|60|50 1,0,0,0,0,0,0,0,0,0,0,0,0,0,0,1,
scooby_state_403709|29|-30 1,0,0,0,0,0,0,0,0,0,0,0,0,0,0,1,
scooby_state_402c4c|38|-11 0,0,0,0,0,0,0,0,0,0,0,1,0,0,0,1,
scooby_state_402cbc|51|28 1,0,0,0,0,0,0,0,0,0,0,0,0,0,0,1,
scooby_state_402c4c|60|-3 0,0,0,0,0,0,0,0,0,0,0,1,0,0,0,1,
scooby_state_403702|48|20 1,0,0,0,0,0,0,0,0,0,0,0,0,0,0,1,
scooby_state_402c4c|4|-45 0,0,0,0,0,0,0,0,0,0,0,1,0,0,0,1,
scooby_state_403710|38|-12 1,0,0,0,0,0,0,0,0,0,0,0,0,0,0,1,
scooby_state_402c20|62|3 1,0,0,0,0,0,0,0,0,0,0,0,0,0,0,1,
scooby_state_402cbc|2|-34 1,0,0,0,0,0,0,0,0,0,0,0,0,0,0,1,
scooby_state_402b90|10|-41 0,0,0,0,0,0,0,0,0,0,0,1,0,0,0,1,
scooby_state_402c50|53|7 0,0,0,0,0,0,0,0,0,0,0,1,0,0,0,1,
scooby_state_4037c1|12|-26 0,0,0,0,0,0,0,0,0,0,0,0,1,0,0,1,
scooby_state_402cbc|8|5 1,0,0,0,0,0,0,0,0,0,0,0,0,0,0,1,
scooby_state_4029e0|17|-41 1,0,0,0,0,0,0,0,0,0,0,0,0,0,0,1,
scooby_state_4029e0|7|-45 1,0,0,0,0,0,0,0,0,0,0,0,0,0,0,1,
scooby_state_402c4c|54|6 0,0,0,0,0,0,0,0,0,0,0,1,0,0,0,1,
scooby_state_402c50|38|3 0,0,0,0,0,0,0,0,0,0,0,1,0,0,0,1,
scooby_state_4037c1|31|-18 0,0,0,0,0,0,0,1,0,0,0,0,0,0,0,1,
scooby_state_402cbc|61|43 1,0,0,0,0,0,0,0,0,0,0,0,0,0,0,1,
scooby_state_402c4c|6|-23 0,0,0,0,0,0,0,0,0,0,0,1,0,0,0,1,
scooby_state_4029f8|53|-8 0,0,0,0,0,0,0,0,0,0,0,1,0,0,0,1,
scooby_state_4013ab|36|30 1,0,0,0,0,0,0,0,0,0,0,0,0,0,0,1,
scooby_state_402c50|22|-4 0,0,0,0,0,0,0,0,0,0,0,1,0,0,0,1,
scooby_state_402c50|28|7 0,0,0,0,0,0,0,0,0,0,0,1,0,0,0,1,
scooby_state_4029e0|34|-11 1,0,0,0,0,0,0,0,0,0,0,0,0,0,0,1,
scooby_state_402c20|33|-13 1,0,0,0,0,0,0,0,0,0,0,0,0,0,0,1,
scooby_state_402cbc|55|54 1,0,0,0,0,0,0,0,0,0,0,0,0,0,0,1,
scooby_state_403709|45|25 0,0,0,0,0,0,0,0,0,0,1,0,0,0,0,1,
scooby_state_402a8b|15|-45 1,0,0,0,0,0,0,0,0,0,0,0,0,0,0,1,
scooby_state_4013dc|32|1 0,0,0,0,0,1,0,0,0,0,0,0,0,0,0,1,
scooby_state_403710|51|25 1,0,0,0,0,0,0,0,0,0,0,0,0,0,0,1,
scooby_state_4037c1|17|-14 1,0,0,0,0,0,0,0,0,0,0,0,0,0,0,1,
scooby_state_403851|60|43 0,0,0,0,0,0,0,0,0,0,1,0,0,0,0,1,
scooby_state_402c50|11|-7 0,0,0,0,0,0,0,0,0,0,0,1,0,0,0,1,
scooby_state_4029e0|18|-1 1,0,0,0,0,0,0,0,0,0,0,0,0,0,0,1,
scooby_state_4029e0|17|-13 1,0,0,0,0,0,0,0,0,0,0,0,0,0,0,1,
scooby_state_4037aa|49|28 1,0,0,0,0,0,0,0,0,0,0,0,0,0,0,1,
scooby_state_403709|63|58 1,0,0,0,0,0,0,0,0,0,0,0,0,0,0,1,
scooby_state_4037aa|43|7 1,0,0,0,0,0,0,0,0,0,0,0,0,0,0,1,
scooby_state_402bb4|20|16 1,0,0,0,0,0,0,0,0,0,0,0,0,0,0,1,
scooby_state_4029e0|58|16 1,0,0,0,0,0,0,0,0,0,0,0,0,0,0,1,
scooby_state_402c4c|11|-31 0,0,0,0,0,0,0,0,0,0,0,1,0,0,0,1,
scooby_state_402c4c|25|-3 0,0,0,0,0,0,0,0,0,0,0,1,0,0,0,1,
scooby_state_4029e0|57|5 1,0,0,0,0,0,0,0,0,0,0,0,0,0,0,1,
scooby_state_402c20|13|-13 1,0,0,0,0,0,0,0,0,0,0,0,0,0,0,1,
scooby_state_4029e0|6|-6 1,0,0,0,0,0,0,0,0,0,0,0,0,0,0,1,
scooby_state_402c4c|32|-6 0,0,0,0,0,0,0,0,0,0,0,1,0,0,0,1,
scooby_state_402c8c|6|-16 1,0,0,0,0,0,0,0,0,0,0,0,0,0,0,1,
scooby_state_4036ff|15|-22 1,0,0,0,0,0,0,0,0,0,0,0,0,0,0,1,
scooby_state_4037c1|36|-17 0,0,0,0,0,0,0,0,0,0,0,1,0,0,0,1,
scooby_state_403710|28|7 0,0,0,0,0,0,0,0,0,0,0,1,0,0,0,1,
scooby_state_403710|20|-23 0,1,0,0,0,0,0,0,0,0,0,0,0,0,0,1,
scooby_state_402c88|35|-1 0,0,0,0,0,0,0,0,0,0,0,0,0,0,1,1,
scooby_state_4029f8|14|-22 0,0,0,0,0,0,0,0,0,0,0,1,0,0,0,1,
scooby_state_40370c|46|9 1,0,0,0,0,0,0,0,0,0,0,0,0,0,0,1,
scooby_state_402c4c|15|-8 0,0,0,0,0,0,0,0,0,0,0,1,0,0,0,1,
scooby_state_402cbc|31|1 1,0,0,0,0,0,0,0,0,0,0,0,0,0,0,1,

scooby_action_0_deg_dist 0,808129,0,0,0,0,0,0,0,0,0,0,0,0,0,0,
scooby_action_-6_deg_dist 0,13046,44,0,12,0,0,0,0,0,0,0,0,0,0,0,
scooby_action_4_deg_dist 0,13109,106,0,43,0,0,0,0,0,0,0,0,0,0,0,
scooby_action_1_deg_dist 0,7271969,165023,0,125606,0,58419,0,0,0,0,0,0,0,0,0,
scooby_action_30_deg_dist 0,9871,6,0,2,0,0,0,0,0,0,0,0,0,0,0,
scooby_action_5_deg_dist 0,12144,34,0,13,0,4,0,0,0,0,0,0,0,0,0,
scooby_action_10_deg_dist 0,11649,33,0,9,0,2,0,0,0,0,0,0,0,0,0,
scooby_action_3_deg_dist 0,13660,97,0,57,0,5,0,0,0,0,0,0,0,0,0,
scooby_action_32_deg_dist 0,9686,13,0,2,0,0,0,0,0,0,0,0,0,0,0,
scooby_action_11_deg_dist 0,11499,32,0,13,0,0,0,0,0,0,0,0,0,0,0,
scooby_action_12_deg_dist 0,11328,43,0,15,0,0,0,0,0,0,0,0,0,0,0,
scooby_action_22_deg_dist 0,10596,13,0,0,0,0,0,0,0,0,0,0,0,0,0,
scooby_action_23_deg_dist 0,10201,16,0,6,0,0,0,0,0,0,0,0,0,0,0,
scooby_action_-1_deg_dist 0,260404,3842,0,662,0,236,0,0,0,0,0,0,0,0,0,
scooby_action_-3_deg_dist 0,13664,68,0,29,0,1,0,0,0,0,0,0,0,0,0,

scooby_track_called 8835461
scooby_track_same_address 60740
scooby_track_evict 8774465

scooby_reward_demand_called 8835461
scooby_reward_demand_pt_not_found 8139992
scooby_reward_demand_pt_found 695469
scooby_reward_demand_pt_found_total 695469
scooby_reward_demand_has_reward 10093
scooby_reward_train_called 7946501
scooby_reward_assign_reward_called 8774465
scooby_reward_no_pref 808101
scooby_reward_incorrect 7138400
scooby_reward_correct_untimely 627860
scooby_reward_correct_timely 57516
scooby_reward_out_of_bounds 142588
scooby_reward_tracker_hit 0

scooby_reward_none_low_bw 808101
scooby_reward_none_high_bw 0
scooby_reward_incorrect_low_bw 7138400
scooby_reward_incorrect_high_bw 0
scooby_reward_correct_untimely_low_bw 627860
scooby_reward_correct_untimely_high_bw 0
scooby_reward_correct_timely_low_bw 57516
scooby_reward_correct_timely_high_bw 0
scooby_reward_out_of_bounds_low_bw 142588
scooby_reward_out_of_bounds_high_bw 0
scooby_reward_tracker_hit_low_bw 0
scooby_reward_tracker_hit_high_bw 0

scooby_reward_1 0,6896137,524839,43531,112872,0,
scooby_reward_3 0,11552,397,323,585,0,
scooby_reward_4 0,11271,229,421,759,0,
scooby_reward_5 0,10434,119,200,936,0,
scooby_reward_10 0,9084,60,198,1830,0,
scooby_reward_11 0,8715,94,160,1989,0,
scooby_reward_12 0,8498,65,148,2126,0,
scooby_reward_22 0,6310,63,116,3579,0,
scooby_reward_23 0,6010,63,95,3736,0,
scooby_reward_30 0,4899,26,61,4479,0,
scooby_reward_32 0,4584,22,70,4750,0,
scooby_reward_-1 0,138700,101319,11485,3234,0,
scooby_reward_-3 0,11548,426,349,641,0,
scooby_reward_-6 0,10658,138,359,1072,0,
scooby_reward_0 808101,0,0,0,0,0,

scooby_train_called 8774464
scooby_train_compute_reward 7946501

scooby_register_fill_called 6117226
scooby_register_fill_set 5862905
scooby_register_fill_set_total 5862905

scooby_register_prefetch_hit_called 1840653
scooby_register_prefetch_hit_set 1536219
scooby_register_prefetch_hit_set_total 1536219

scooby_pref_issue_scooby 8617394

learning_engine_featurewise.action.called 8835461
learning_engine_featurewise.action.explore 15996
learning_engine_featurewise.action.exploit 8819465
learning_engine_featurewise.action.fallback 6962537
learning_engine_featurewise.action.dyn_fallback_saved_bw 0
learning_engine_featurewise.action.dyn_fallback_saved_bw_acc 1040175
learning_engine_featurewise.action.index_1_explored 1090
learning_engine_featurewise.action.index_1_exploited 7619927
learning_engine_featurewise.action.index_3_explored 1049
learning_engine_featurewise.action.index_3_exploited 12770
learning_engine_featurewise.action.index_4_explored 1069
learning_engine_featurewise.action.index_4_exploited 12189
learning_engine_featurewise.action.index_5_explored 1034
learning_engine_featurewise.action.index_5_exploited 11161
learning_engine_featurewise.action.index_10_explored 1107
learning_engine_featurewise.action.index_10_exploited 10586
learning_engine_featurewise.action.index_11_explored 1071
learning_engine_featurewise.action.index_11_exploited 10473
learning_engine_featurewise.action.index_12_explored 1098
learning_engine_featurewise.action.index_12_exploited 10288
learning_engine_featurewise.action.index_22_explored 1075
learning_engine_featurewise.action.index_22_exploited 9534
learning_engine_featurewise.action.index_23_explored 1067
learning_engine_featurewise.action.index_23_exploited 9156
learning_engine_featurewise.action.index_30_explored 1052
learning_engine_featurewise.action.index_30_exploited 8827
learning_engine_featurewise.action.index_32_explored 1016
learning_engine_featurewise.action.index_32_exploited 8685
learning_engine_featurewise.action.index_-1_explored 1065
learning_engine_featurewise.action.index_-1_exploited 264079
learning_engine_featurewise.action.index_-3_explored 1060
learning_engine_featurewise.action.index_-3_exploited 12702
learning_engine_featurewise.action.index_-6_explored 1063
learning_engine_featurewise.action.index_-6_exploited 12039
learning_engine_featurewise.action.index_0_explored 1080
learning_engine_featurewise.action.index_0_exploited 807049
learning_engine_featurewise.learn.called 8774464
learning_engine_featurewise.learn.su_skip_PC 0
learning_engine_featurewise.learn.su_skip_PC_Delta 0

learning_engine_featurewise.q_value_histogram.bucket_0 821118
learning_engine_featurewise.q_value_histogram.bucket_1 84169
learning_engine_featurewise.q_value_histogram.bucket_2 7422409
learning_engine_featurewise.q_value_histogram.bucket_3 120209
learning_engine_featurewise.q_value_histogram.bucket_4 130937
learning_engine_featurewise.q_value_histogram.bucket_5 78962
learning_engine_featurewise.q_value_histogram.bucket_6 161661
learning_engine_featurewise.q_value_histogram.bucket_7 0

learning_engine_featurewise.consensus.total 8819465
learning_engine_featurewise.consensus.feature_align_PC 7930855
learning_engine_featurewise.consensus.feature_align_PC_ratio 0.90
learning_engine_featurewise.consensus.feature_align_PC_Delta 7761586
learning_engine_featurewise.consensus.feature_align_PC_Delta_ratio 0.88
learning_engine_featurewise.consensus.feature_align_all 7700272
learning_engine_featurewise.consensus.feature_align_all_ratio 0.87

learning_engine_featurewise.feature_PC_min_weight 1000000.00000000
learning_engine_featurewise.feature_PC_max_weight 0.00000000
learning_engine_featurewise.feature_PC_Delta_min_weight 1000000.00000000
learning_engine_featurewise.feature_PC_Delta_max_weight 0.00000000
unique_pcs 128
unique_pages 56129
unique_trigger_pcs 78
total_bitmaps_seen 0
unique_bitmaps_seen 0

scooby_bw_epochs 2243340
scooby_bw_level_0 1449131
scooby_bw_level_1 720655
scooby_bw_level_2 64997
scooby_bw_level_3 8557

scooby_ipc_epochs 0
scooby_ipc_level_0 0
scooby_ipc_level_1 0
scooby_ipc_level_2 0
scooby_ipc_level_3 0

scooby_cache_acc_epochs 509158
scooby_cache_acc_level_0 100843
scooby_cache_acc_level_1 83087
scooby_cache_acc_level_2 120653
scooby_cache_acc_level_3 131774
scooby_cache_acc_level_4 47339
scooby_cache_acc_level_5 13849
scooby_cache_acc_level_6 4469
scooby_cache_acc_level_7 2316
scooby_cache_acc_level_8 1267
scooby_cache_acc_level_9 3561

Channel_0_RQ_row_buffer_hit 258885
Channel_0_RQ_row_buffer_miss 4682491
Channel_0_WQ_row_buffer_hit 224319
Channel_0_WQ_row_buffer_miss 402576
Channel_0_WQ_full 0
Channel_0_dbus_congested 1671284

avg_congested_cycle 8

DRAM_bw_pochs 2243340
DRAM_bw_level_0 1449131
DRAM_bw_level_1 720655
DRAM_bw_level_2 64997
DRAM_bw_level_3 8557
