*************************************************
   ChampSim Multicore Out-of-Order Simulator
   Last compiled: Apr  3 2025 20:54:34
*************************************************
parsing config file: /home/zir/Pythia/config/pythia.ini

trace_0 /home/zir/ChampSim/ML-DPC/ChampSimTraces/spec17/654.roms-s5.trace.xz
adding L2C_PREFETCHER: Scooby
Initialize SHIP state
warmup_instructions 10000000
simulation_instructions 50000000
champsim_seed 168
measure_ipc 0
measure_ipc_epoch 1000
measure_dram_bw 1
measure_dram_bw_epoch 256
measure_cache_acc 1
measure_cache_acc_epoch 1024
l1d_perfect 0
l2c_perfect 0
llc_perfect 0
l1d_semi_perfect 0
l2c_semi_perfect 0
llc_semi_perfect 0
semi_perfect_cache_page_buffer_size 64

num_cpus 1
cpu_freq 4000
dram_io_freq 2400
page_size 4096
block_size 64
max_read_per_cycle 8
max_fill_per_cycle 1
dram_channels 1
log2_dram_channels 0
dram_ranks 1
dram_banks 8
dram_rows 65536
dram_columns 128
dram_row_size 8
dram_size 4096
dram_pages 1048576

fetch_width 6
decode_width 6
exec_width 4
lq_width 2
sq_width 2
retire_width 4
scheduler_size 128
branch_mispredict_penalty 20
rob_size 256
lq_size 72
sq_size 56
num_instr_destinations_sparc 4
num_instr_destinations 2
num_instr_sources 4

itlb_set 16
itlb_way 8
itlb_rq_size 16
itlb_wq_size 16
itlb_pq_size 0
itlb_mshr_size 8
itlb_latency 1

dtlb_set 16
dtlb_way 4
dtlb_rq_size 16
dtlb_wq_size 16
dtlb_pq_size 0
dtlb_mshr_size 8
dtlb_latency 1

stlb_set 128
stlb_way 12
stlb_rq_size 32
stlb_wq_size 32
stlb_pq_size 0
stlb_mshr_size 16
stlb_latency 8

l1i_size 32
l1i_set 64
l1i_way 8
l1i_rq_size 64
l1i_wq_size 64
l1i_pq_size 8
l1i_mshr_size 8
l1i_latency 1

l1d_size 32
l1d_set 64
l1d_way 8
l1d_rq_size 64
l1d_wq_size 64
l1d_pq_size 8
l1d_mshr_size 16
l1d_latency 4

l2c_size 256
l2c_set 512
l2c_way 8
l2c_rq_size 32
l2c_wq_size 32
l2c_pq_size 32
l2c_mshr_size 32
l2c_latency 10

llc_size 2048
llc_set 2048
llc_way 16
llc_rq_size 32
llc_wq_size 32
llc_pq_size 32
llc_mshr_size 64
llc_latency 20

dram_channel_width 8
dram_wq_size 64
dram_rq_size 64
tRP 15
tRCD 15
tCAS 12.5
dram_dbus_turn_around_time 30
dram_write_high_wm 56
dram_write_low_wm 48
min_dram_writes_per_switch 16
dram_mtps 2400
dram_dbus_return_time 13

scooby_alpha 0.0065088
scooby_gamma 0.556301
scooby_epsilon 0.00182284
scooby_state_num_bits 10
scooby_max_states 1024
scooby_seed 200
scooby_policy EGreedy
scooby_learning_type SARSA
scooby_actions 1,3,4,5,10,11,12,22,23,30,32,-1,-3,-6,0,
scooby_max_actions 15
scooby_pt_size 256
scooby_st_size 64
scooby_max_pcs 5
scooby_max_offsets 5
scooby_max_deltas 5
scooby_reward_none -4
scooby_reward_incorrect -8
scooby_reward_correct_untimely 12
scooby_reward_correct_timely 20
scooby_brain_zero_init 0
scooby_enable_reward_all 0
scooby_enable_track_multiple 0
scooby_enable_reward_out_of_bounds 1
scooby_reward_out_of_bounds -12
scooby_state_type 1
scooby_state_hash_type 11
scooby_access_debug 0
scooby_print_access_debug 0
scooby_print_access_debug_pc deadbeef
scooby_print_access_debug_pc_count 0
scooby_print_trace 0
scooby_enable_state_action_stats 1
scooby_enable_reward_tracker_hit 0
scooby_reward_tracker_hit -2
scooby_enable_featurewise_engine 1
scooby_pref_degree 1
scooby_enable_dyn_degree 1
scooby_max_to_avg_q_thresholds 0.5,1,2,
scooby_dyn_degrees 1,2,4,4,
scooby_multi_deg_select_type 2
scooby_last_pref_offset_conf_thresholds 1,3,8,
scooby_dyn_degrees_type2 1,2,4,6,
scooby_action_tracker_size 2
scooby_high_bw_thresh 4
scooby_enable_hbw_reward 1
scooby_reward_hbw_correct_timely 20
scooby_reward_hbw_correct_untimely 12
scooby_reward_hbw_incorrect -14
scooby_reward_hbw_none -2
scooby_reward_hbw_out_of_bounds -12
scooby_reward_hbw_tracker_hit -2
scooby_last_pref_offset_conf_thresholds_hbw 1,3,8,
scooby_dyn_degrees_type2_hbw 1,2,4,6,

le_enable_trace 0
le_trace_interval 0
le_trace_file_name 
le_trace_state 0
le_enable_score_plot 0
le_plot_file_name 
le_plot_actions 
le_enable_action_trace 0
le_action_trace_interval 0
le_action_trace_name 
le_enable_action_plot 0

le_featurewise_active_features PC, PC_Delta
le_featurewise_num_tilings 3,3,
le_featurewise_num_tiles 128,128,
le_featurewise_hash_types 2,2,
le_featurewise_enable_tiling_offset 1,1,
le_featurewise_max_q_thresh 0.5
le_featurewise_enable_action_fallback 1
le_featurewise_feature_weights 1,1,
le_featurewise_enable_dynamic_weight 0
le_featurewise_weight_gradient 0.001
le_featurewise_disable_adjust_weight_all_features_align 1
le_featurewise_selective_update 0
le_featurewise_pooling_type 2
le_featurewise_enable_dyn_action_fallback 1
le_featurewise_bw_acc_check_level 1
le_featurewise_acc_thresh 2
le_featurewise_enable_trace 0
le_featurewise_trace_feature_type 0
le_featurewise_trace_feature 
le_featurewise_trace_interval 0
le_featurewise_trace_record_count 0
le_featurewise_trace_file_name 
le_featurewise_enable_score_plot 0
le_featurewise_plot_actions 
le_featurewise_plot_file_name 


Heartbeat CPU  0 instructions:    1000003 cycles:     442887 heartbeat IPC: 2.25792 cumulative IPC: 2.25792 (Simulation time: 0 hr 0 min 2 sec) 
Heartbeat CPU  0 instructions:    2000002 cycles:     884915 heartbeat IPC: 2.26230 cumulative IPC: 2.26011 (Simulation time: 0 hr 0 min 4 sec) 
Heartbeat CPU  0 instructions:    3000002 cycles:    1328287 heartbeat IPC: 2.25544 cumulative IPC: 2.25855 (Simulation time: 0 hr 0 min 6 sec) 
Heartbeat CPU  0 instructions:    4000000 cycles:    1808752 heartbeat IPC: 2.08131 cumulative IPC: 2.21147 (Simulation time: 0 hr 0 min 8 sec) 
Heartbeat CPU  0 instructions:    5000001 cycles:    2323597 heartbeat IPC: 1.94233 cumulative IPC: 2.15184 (Simulation time: 0 hr 0 min 10 sec) 
Heartbeat CPU  0 instructions:    6000000 cycles:    2766766 heartbeat IPC: 2.25647 cumulative IPC: 2.16860 (Simulation time: 0 hr 0 min 11 sec) 
Heartbeat CPU  0 instructions:    7000001 cycles:    3208790 heartbeat IPC: 2.26232 cumulative IPC: 2.18151 (Simulation time: 0 hr 0 min 13 sec) 
Heartbeat CPU  0 instructions:    8000000 cycles:    3652280 heartbeat IPC: 2.25484 cumulative IPC: 2.19041 (Simulation time: 0 hr 0 min 15 sec) 
Heartbeat CPU  0 instructions:    9000000 cycles:    4096097 heartbeat IPC: 2.25318 cumulative IPC: 2.19721 (Simulation time: 0 hr 0 min 17 sec) 
Heartbeat CPU  0 instructions:   10000002 cycles:    4538504 heartbeat IPC: 2.26037 cumulative IPC: 2.20337 (Simulation time: 0 hr 0 min 19 sec) 

Warmup complete CPU  0 instructions:   10000002 cycles:    4538504 (Simulation time: 0 hr 0 min 19 sec) 

Heartbeat CPU  0 instructions:   11000001 cycles:    5358587 heartbeat IPC: 1.21939 cumulative IPC: 1.21939 (Simulation time: 0 hr 0 min 21 sec) 
Heartbeat CPU  0 instructions:   12000000 cycles:    6227070 heartbeat IPC: 1.15143 cumulative IPC: 1.18444 (Simulation time: 0 hr 0 min 23 sec) 
Heartbeat CPU  0 instructions:   13000001 cycles:    6969221 heartbeat IPC: 1.34744 cumulative IPC: 1.23420 (Simulation time: 0 hr 0 min 25 sec) 
Heartbeat CPU  0 instructions:   14000001 cycles:    7711291 heartbeat IPC: 1.34758 cumulative IPC: 1.26072 (Simulation time: 0 hr 0 min 27 sec) 
Heartbeat CPU  0 instructions:   15000001 cycles:    8453866 heartbeat IPC: 1.34667 cumulative IPC: 1.27702 (Simulation time: 0 hr 0 min 29 sec) 
Heartbeat CPU  0 instructions:   16000000 cycles:    9198177 heartbeat IPC: 1.34352 cumulative IPC: 1.28764 (Simulation time: 0 hr 0 min 31 sec) 
Heartbeat CPU  0 instructions:   17000003 cycles:    9940916 heartbeat IPC: 1.34637 cumulative IPC: 1.29572 (Simulation time: 0 hr 0 min 33 sec) 
Heartbeat CPU  0 instructions:   18000000 cycles:   10778341 heartbeat IPC: 1.19413 cumulative IPC: 1.28208 (Simulation time: 0 hr 0 min 35 sec) 
Heartbeat CPU  0 instructions:   19000002 cycles:   11630307 heartbeat IPC: 1.17376 cumulative IPC: 1.26907 (Simulation time: 0 hr 0 min 38 sec) 
Heartbeat CPU  0 instructions:   20000000 cycles:   12373317 heartbeat IPC: 1.34587 cumulative IPC: 1.27635 (Simulation time: 0 hr 0 min 40 sec) 
Heartbeat CPU  0 instructions:   21000000 cycles:   13117471 heartbeat IPC: 1.34381 cumulative IPC: 1.28221 (Simulation time: 0 hr 0 min 42 sec) 
Heartbeat CPU  0 instructions:   22000000 cycles:   13860367 heartbeat IPC: 1.34608 cumulative IPC: 1.28730 (Simulation time: 0 hr 0 min 44 sec) 
Heartbeat CPU  0 instructions:   23000000 cycles:   14604349 heartbeat IPC: 1.34412 cumulative IPC: 1.29150 (Simulation time: 0 hr 0 min 46 sec) 
Heartbeat CPU  0 instructions:   24000000 cycles:   15351206 heartbeat IPC: 1.33894 cumulative IPC: 1.29477 (Simulation time: 0 hr 0 min 48 sec) 
Heartbeat CPU  0 instructions:   25000000 cycles:   16200065 heartbeat IPC: 1.17805 cumulative IPC: 1.28628 (Simulation time: 0 hr 0 min 50 sec) 
Heartbeat CPU  0 instructions:   26000002 cycles:   17037239 heartbeat IPC: 1.19450 cumulative IPC: 1.28013 (Simulation time: 0 hr 0 min 52 sec) 
Heartbeat CPU  0 instructions:   27000001 cycles:   17780564 heartbeat IPC: 1.34531 cumulative IPC: 1.28379 (Simulation time: 0 hr 0 min 54 sec) 
Heartbeat CPU  0 instructions:   28000000 cycles:   18523571 heartbeat IPC: 1.34588 cumulative IPC: 1.28709 (Simulation time: 0 hr 0 min 56 sec) 
Heartbeat CPU  0 instructions:   29000003 cycles:   19268087 heartbeat IPC: 1.34316 cumulative IPC: 1.28992 (Simulation time: 0 hr 0 min 58 sec) 
Heartbeat CPU  0 instructions:   30000003 cycles:   20011325 heartbeat IPC: 1.34546 cumulative IPC: 1.29259 (Simulation time: 0 hr 1 min 0 sec) 
Heartbeat CPU  0 instructions:   31000002 cycles:   20770632 heartbeat IPC: 1.31699 cumulative IPC: 1.29373 (Simulation time: 0 hr 1 min 2 sec) 
Heartbeat CPU  0 instructions:   32000000 cycles:   21616432 heartbeat IPC: 1.18231 cumulative IPC: 1.28821 (Simulation time: 0 hr 1 min 5 sec) 
Heartbeat CPU  0 instructions:   33000001 cycles:   22435866 heartbeat IPC: 1.22036 cumulative IPC: 1.28511 (Simulation time: 0 hr 1 min 7 sec) 
Heartbeat CPU  0 instructions:   34000001 cycles:   23179995 heartbeat IPC: 1.34385 cumulative IPC: 1.28745 (Simulation time: 0 hr 1 min 9 sec) 
Heartbeat CPU  0 instructions:   35000001 cycles:   23922277 heartbeat IPC: 1.34720 cumulative IPC: 1.28974 (Simulation time: 0 hr 1 min 11 sec) 
Heartbeat CPU  0 instructions:   36000000 cycles:   24665263 heartbeat IPC: 1.34592 cumulative IPC: 1.29181 (Simulation time: 0 hr 1 min 13 sec) 
Heartbeat CPU  0 instructions:   37000003 cycles:   25408253 heartbeat IPC: 1.34592 cumulative IPC: 1.29374 (Simulation time: 0 hr 1 min 15 sec) 
Heartbeat CPU  0 instructions:   38000000 cycles:   26175962 heartbeat IPC: 1.30257 cumulative IPC: 1.29405 (Simulation time: 0 hr 1 min 17 sec) 
Heartbeat CPU  0 instructions:   39000001 cycles:   27035931 heartbeat IPC: 1.16283 cumulative IPC: 1.28904 (Simulation time: 0 hr 1 min 20 sec) 
Heartbeat CPU  0 instructions:   40000000 cycles:   27841646 heartbeat IPC: 1.24113 cumulative IPC: 1.28738 (Simulation time: 0 hr 1 min 22 sec) 
Heartbeat CPU  0 instructions:   41000000 cycles:   28584158 heartbeat IPC: 1.34678 cumulative IPC: 1.28921 (Simulation time: 0 hr 1 min 24 sec) 
Heartbeat CPU  0 instructions:   42000000 cycles:   29327061 heartbeat IPC: 1.34607 cumulative IPC: 1.29092 (Simulation time: 0 hr 1 min 26 sec) 
Heartbeat CPU  0 instructions:   43000000 cycles:   30070345 heartbeat IPC: 1.34538 cumulative IPC: 1.29250 (Simulation time: 0 hr 1 min 28 sec) 
Heartbeat CPU  0 instructions:   44000000 cycles:   30813522 heartbeat IPC: 1.34557 cumulative IPC: 1.29400 (Simulation time: 0 hr 1 min 30 sec) 
Heartbeat CPU  0 instructions:   45000003 cycles:   31599415 heartbeat IPC: 1.27244 cumulative IPC: 1.29338 (Simulation time: 0 hr 1 min 32 sec) 
Heartbeat CPU  0 instructions:   46000001 cycles:   32455055 heartbeat IPC: 1.16871 cumulative IPC: 1.28956 (Simulation time: 0 hr 1 min 34 sec) 
Heartbeat CPU  0 instructions:   47000001 cycles:   33234631 heartbeat IPC: 1.28275 cumulative IPC: 1.28937 (Simulation time: 0 hr 1 min 36 sec) 
Heartbeat CPU  0 instructions:   48000000 cycles:   33978104 heartbeat IPC: 1.34504 cumulative IPC: 1.29078 (Simulation time: 0 hr 1 min 38 sec) 
Heartbeat CPU  0 instructions:   49000003 cycles:   34722154 heartbeat IPC: 1.34400 cumulative IPC: 1.29209 (Simulation time: 0 hr 1 min 40 sec) 
Heartbeat CPU  0 instructions:   50000003 cycles:   35465469 heartbeat IPC: 1.34532 cumulative IPC: 1.29337 (Simulation time: 0 hr 1 min 42 sec) 
Heartbeat CPU  0 instructions:   51000000 cycles:   36209427 heartbeat IPC: 1.34416 cumulative IPC: 1.29456 (Simulation time: 0 hr 1 min 44 sec) 
Heartbeat CPU  0 instructions:   52000000 cycles:   37010554 heartbeat IPC: 1.24824 cumulative IPC: 1.29342 (Simulation time: 0 hr 1 min 46 sec) 
Heartbeat CPU  0 instructions:   53000000 cycles:   37889400 heartbeat IPC: 1.13786 cumulative IPC: 1.28932 (Simulation time: 0 hr 1 min 49 sec) 
Heartbeat CPU  0 instructions:   54000000 cycles:   38632122 heartbeat IPC: 1.34640 cumulative IPC: 1.29056 (Simulation time: 0 hr 1 min 51 sec) 
Heartbeat CPU  0 instructions:   55000000 cycles:   39375372 heartbeat IPC: 1.34544 cumulative IPC: 1.29173 (Simulation time: 0 hr 1 min 53 sec) 
Heartbeat CPU  0 instructions:   56000000 cycles:   40119432 heartbeat IPC: 1.34398 cumulative IPC: 1.29283 (Simulation time: 0 hr 1 min 55 sec) 
Heartbeat CPU  0 instructions:   57000000 cycles:   40862898 heartbeat IPC: 1.34505 cumulative IPC: 1.29390 (Simulation time: 0 hr 1 min 57 sec) 
Heartbeat CPU  0 instructions:   58000002 cycles:   41605455 heartbeat IPC: 1.34670 cumulative IPC: 1.29495 (Simulation time: 0 hr 1 min 59 sec) 
Heartbeat CPU  0 instructions:   59000000 cycles:   42425643 heartbeat IPC: 1.21923 cumulative IPC: 1.29331 (Simulation time: 0 hr 2 min 1 sec) 
Heartbeat CPU  0 instructions:   60000000 cycles:   43290352 heartbeat IPC: 1.15646 cumulative IPC: 1.29026 (Simulation time: 0 hr 2 min 3 sec) 
Finished CPU 0 instructions: 50000000 cycles: 38751857 cumulative IPC: 1.29026 (Simulation time: 0 hr 2 min 3 sec) 

ChampSim completed all CPUs

[ROI Statistics]
Core_0_instructions 50000000
Core_0_cycles 38751857
Core_0_IPC 1.29026

Core_0_branch_prediction_accuracy 99.79587
Core_0_branch_MPKI 0.02648
Core_0_average_ROB_occupancy_at_mispredict 245.73414

Core_0_L1D_total_access 14580900
Core_0_L1D_total_hit 13960504
Core_0_L1D_total_miss 620396
Core_0_L1D_loads 10407867
Core_0_L1D_load_hit 10037679
Core_0_L1D_load_miss 370188
Core_0_L1D_RFOs 4173033
Core_0_L1D_RFO_hit 3922825
Core_0_L1D_RFO_miss 250208
Core_0_L1D_prefetches 0
Core_0_L1D_prefetch_hit 0
Core_0_L1D_prefetch_miss 0
Core_0_L1D_writebacks 0
Core_0_L1D_writeback_hit 0
Core_0_L1D_writeback_miss 0
Core_0_L1D_prefetch_requested 0
Core_0_L1D_prefetch_dropped 0
Core_0_L1D_prefetch_issued 0
Core_0_L1D_prefetch_filled 0
Core_0_L1D_prefetch_useful 0
Core_0_L1D_prefetch_useless 0
Core_0_L1D_prefetch_late 0
Core_0_L1D_average_miss_latency 81.78324

Core_0_L1D_rq_access 16287555
Core_0_L1D_rq_forward 0
Core_0_L1D_rq_merged 5759045
Core_0_L1D_rq_to_cache 10528510
Core_0_L1D_rq_full 0

Core_0_L1D_wq_access 4623972
Core_0_L1D_wq_forward 0
Core_0_L1D_wq_merged 0
Core_0_L1D_wq_to_cache 4623972
Core_0_L1D_wq_full 8171

Core_0_L1D_pq_access 0
Core_0_L1D_pq_forward 0
Core_0_L1D_pq_merged 0
Core_0_L1D_pq_to_cache 0
Core_0_L1D_pq_full 0

Core_0_L1D_acc_epochs 41789
Core_0_L1D_acc_level_0 41789
Core_0_L1D_acc_level_1 0
Core_0_L1D_acc_level_2 0
Core_0_L1D_acc_level_3 0
Core_0_L1D_acc_level_4 0
Core_0_L1D_acc_level_5 0
Core_0_L1D_acc_level_6 0
Core_0_L1D_acc_level_7 0
Core_0_L1D_acc_level_8 0
Core_0_L1D_acc_level_9 0

Core_0_L1I_total_access 12360204
Core_0_L1I_total_hit 12360204
Core_0_L1I_total_miss 0
Core_0_L1I_loads 12360204
Core_0_L1I_load_hit 12360204
Core_0_L1I_load_miss 0
Core_0_L1I_RFOs 0
Core_0_L1I_RFO_hit 0
Core_0_L1I_RFO_miss 0
Core_0_L1I_prefetches 0
Core_0_L1I_prefetch_hit 0
Core_0_L1I_prefetch_miss 0
Core_0_L1I_writebacks 0
Core_0_L1I_writeback_hit 0
Core_0_L1I_writeback_miss 0
Core_0_L1I_prefetch_requested 0
Core_0_L1I_prefetch_dropped 0
Core_0_L1I_prefetch_issued 0
Core_0_L1I_prefetch_filled 0
Core_0_L1I_prefetch_useful 0
Core_0_L1I_prefetch_useless 0
Core_0_L1I_prefetch_late 0
Core_0_L1I_average_miss_latency -nan

Core_0_L1I_rq_access 50000006
Core_0_L1I_rq_forward 0
Core_0_L1I_rq_merged 37639802
Core_0_L1I_rq_to_cache 12360204
Core_0_L1I_rq_full 0

Core_0_L1I_wq_access 0
Core_0_L1I_wq_forward 0
Core_0_L1I_wq_merged 0
Core_0_L1I_wq_to_cache 0
Core_0_L1I_wq_full 0

Core_0_L1I_pq_access 0
Core_0_L1I_pq_forward 0
Core_0_L1I_pq_merged 0
Core_0_L1I_pq_to_cache 0
Core_0_L1I_pq_full 0

Core_0_L1I_acc_epochs 41789
Core_0_L1I_acc_level_0 41789
Core_0_L1I_acc_level_1 0
Core_0_L1I_acc_level_2 0
Core_0_L1I_acc_level_3 0
Core_0_L1I_acc_level_4 0
Core_0_L1I_acc_level_5 0
Core_0_L1I_acc_level_6 0
Core_0_L1I_acc_level_7 0
Core_0_L1I_acc_level_8 0
Core_0_L1I_acc_level_9 0

Core_0_L2C_total_access 2720264
Core_0_L2C_total_hit 2194267
Core_0_L2C_total_miss 525997
Core_0_L2C_loads 370187
Core_0_L2C_load_hit 359751
Core_0_L2C_load_miss 10436
Core_0_L2C_RFOs 250208
Core_0_L2C_RFO_hit 132
Core_0_L2C_RFO_miss 250076
Core_0_L2C_prefetches 1848754
Core_0_L2C_prefetch_hit 1584151
Core_0_L2C_prefetch_miss 264603
Core_0_L2C_writebacks 251115
Core_0_L2C_writeback_hit 250233
Core_0_L2C_writeback_miss 882
Core_0_L2C_prefetch_requested 2163773
Core_0_L2C_prefetch_dropped 919
Core_0_L2C_prefetch_issued 2162854
Core_0_L2C_prefetch_filled 303939
Core_0_L2C_prefetch_useful 292172
Core_0_L2C_prefetch_useless 11716
Core_0_L2C_prefetch_late 3007
Core_0_L2C_average_miss_latency 133.68099

Core_0_L2C_rq_access 620396
Core_0_L2C_rq_forward 0
Core_0_L2C_rq_merged 0
Core_0_L2C_rq_to_cache 620395
Core_0_L2C_rq_full 0

Core_0_L2C_wq_access 251115
Core_0_L2C_wq_forward 13
Core_0_L2C_wq_merged 0
Core_0_L2C_wq_to_cache 251115
Core_0_L2C_wq_full 0

Core_0_L2C_pq_access 2162854
Core_0_L2C_pq_forward 0
Core_0_L2C_pq_merged 11595
Core_0_L2C_pq_to_cache 2151247
Core_0_L2C_pq_full 0

Core_0_L2C_acc_epochs 41789
Core_0_L2C_acc_level_0 212
Core_0_L2C_acc_level_1 2163
Core_0_L2C_acc_level_2 2751
Core_0_L2C_acc_level_3 2974
Core_0_L2C_acc_level_4 3260
Core_0_L2C_acc_level_5 3058
Core_0_L2C_acc_level_6 3412
Core_0_L2C_acc_level_7 2689
Core_0_L2C_acc_level_8 4809
Core_0_L2C_acc_level_9 16461

Core_0_LLC_total_access 775809
Core_0_LLC_total_hit 448733
Core_0_LLC_total_miss 327076
Core_0_LLC_loads 7432
Core_0_LLC_load_hit 3737
Core_0_LLC_load_miss 3695
Core_0_LLC_RFOs 250075
Core_0_LLC_RFO_hit 129575
Core_0_LLC_RFO_miss 120500
Core_0_LLC_prefetches 267608
Core_0_LLC_prefetch_hit 156531
Core_0_LLC_prefetch_miss 111077
Core_0_LLC_writebacks 250694
Core_0_LLC_writeback_hit 158890
Core_0_LLC_writeback_miss 91804
Core_0_LLC_prefetch_requested 0
Core_0_LLC_prefetch_dropped 0
Core_0_LLC_prefetch_issued 0
Core_0_LLC_prefetch_filled 138705
Core_0_LLC_prefetch_useful 5220
Core_0_LLC_prefetch_useless 129068
Core_0_LLC_prefetch_late 0
Core_0_LLC_average_miss_latency 166.22348

Core_0_LLC_rq_access 257507
Core_0_LLC_rq_forward 0
Core_0_LLC_rq_merged 0
Core_0_LLC_rq_to_cache 257507
Core_0_LLC_rq_full 0

Core_0_LLC_wq_access 250694
Core_0_LLC_wq_forward 0
Core_0_LLC_wq_merged 0
Core_0_LLC_wq_to_cache 250694
Core_0_LLC_wq_full 0

Core_0_LLC_pq_access 306946
Core_0_LLC_pq_forward 0
Core_0_LLC_pq_merged 0
Core_0_LLC_pq_to_cache 306946
Core_0_LLC_pq_full 0

Core_0_LLC_acc_epochs 42276
Core_0_LLC_acc_level_0 40141
Core_0_LLC_acc_level_1 412
Core_0_LLC_acc_level_2 356
Core_0_LLC_acc_level_3 216
Core_0_LLC_acc_level_4 144
Core_0_LLC_acc_level_5 87
Core_0_LLC_acc_level_6 70
Core_0_LLC_acc_level_7 58
Core_0_LLC_acc_level_8 46
Core_0_LLC_acc_level_9 746

Core_0_major_page_fault 0
Core_0_minor_page_fault 6243

scooby_st_lookup 422299
scooby_st_hit 415146
scooby_st_evict 7089
scooby_st_insert 7153
scooby_st_streaming 0

scooby_predict_called 422299
scooby_predict_out_of_bounds 6688
scooby_predict_action_1 414404
scooby_predict_issue_action_1 412851
scooby_predict_hit_action_1 1553
scooby_predict_out_of_bounds_action_1 6532
scooby_predict_action_3 73
scooby_predict_issue_action_3 71
scooby_predict_hit_action_3 2
scooby_predict_out_of_bounds_action_3 3
scooby_predict_action_4 590
scooby_predict_issue_action_4 589
scooby_predict_hit_action_4 1
scooby_predict_out_of_bounds_action_4 38
scooby_predict_action_5 49
scooby_predict_issue_action_5 47
scooby_predict_hit_action_5 2
scooby_predict_out_of_bounds_action_5 2
scooby_predict_action_10 58
scooby_predict_issue_action_10 57
scooby_predict_hit_action_10 1
scooby_predict_out_of_bounds_action_10 9
scooby_predict_action_11 48
scooby_predict_issue_action_11 47
scooby_predict_hit_action_11 1
scooby_predict_out_of_bounds_action_11 6
scooby_predict_action_12 52
scooby_predict_issue_action_12 52
scooby_predict_hit_action_12 0
scooby_predict_out_of_bounds_action_12 8
scooby_predict_action_22 32
scooby_predict_issue_action_22 32
scooby_predict_hit_action_22 0
scooby_predict_out_of_bounds_action_22 24
scooby_predict_action_23 39
scooby_predict_issue_action_23 39
scooby_predict_hit_action_23 0
scooby_predict_out_of_bounds_action_23 17
scooby_predict_action_30 36
scooby_predict_issue_action_30 35
scooby_predict_hit_action_30 1
scooby_predict_out_of_bounds_action_30 25
scooby_predict_action_32 22
scooby_predict_issue_action_32 22
scooby_predict_hit_action_32 0
scooby_predict_out_of_bounds_action_32 20
scooby_predict_action_-1 66
scooby_predict_issue_action_-1 3
scooby_predict_hit_action_-1 63
scooby_predict_out_of_bounds_action_-1 0
scooby_predict_action_-3 50
scooby_predict_issue_action_-3 5
scooby_predict_hit_action_-3 45
scooby_predict_out_of_bounds_action_-3 0
scooby_predict_action_-6 36
scooby_predict_issue_action_-6 4
scooby_predict_hit_action_-6 32
scooby_predict_out_of_bounds_action_-6 4
scooby_predict_action_0 56
scooby_predict_issue_action_0 0
scooby_predict_hit_action_0 0
scooby_predict_out_of_bounds_action_0 0
scooby_predict_multi_deg_called 392129
scooby_predict_predicted 2163773
scooby_predict_multi_deg 1749919
scooby_predict_multi_deg_2 385771
scooby_predict_multi_deg_3 366137
scooby_predict_multi_deg_4 359898
scooby_predict_multi_deg_5 322098
scooby_predict_multi_deg_6 316015
scooby_predict_multi_deg_7 0
scooby_predict_multi_deg_8 0
scooby_predict_multi_deg_9 0
scooby_predict_multi_deg_10 0
scooby_predict_multi_deg_11 0
scooby_predict_multi_deg_12 0
scooby_predict_multi_deg_13 0
scooby_predict_multi_deg_14 0
scooby_predict_multi_deg_15 0
scooby_predict_multi_deg_16 0

scooby_selected_deg_1 21725
scooby_selected_deg_2 13512
scooby_selected_deg_3 0
scooby_selected_deg_4 32531
scooby_selected_deg_5 0
scooby_selected_deg_6 346086
scooby_selected_deg_7 0
scooby_selected_deg_8 0
scooby_selected_deg_9 0
scooby_selected_deg_10 0
scooby_selected_deg_11 0
scooby_selected_deg_12 0
scooby_selected_deg_13 0
scooby_selected_deg_14 0
scooby_selected_deg_15 0
scooby_selected_deg_16 0

scooby_state_43a688|46|1 366,0,0,0,0,0,0,0,0,2,0,0,0,1,0,369,
scooby_state_43a688|44|1 369,0,0,0,0,0,0,0,0,0,0,0,0,0,0,369,
scooby_state_43a680|4|1 367,0,0,0,0,0,0,1,0,0,0,0,1,0,0,369,
scooby_state_43a680|58|1 368,0,0,0,0,0,0,0,0,0,0,0,0,1,0,369,
scooby_state_43a688|34|1 369,0,0,0,0,0,0,0,0,0,0,0,0,0,0,369,
scooby_state_43a680|12|1 368,0,0,1,0,0,0,0,0,0,0,0,0,0,0,369,
scooby_state_43a688|27|1 369,0,0,0,0,0,0,0,0,0,0,0,0,0,0,369,
scooby_state_43a688|26|1 368,0,0,0,0,1,0,0,0,0,0,0,0,0,0,369,
scooby_state_43a680|9|1 368,1,0,0,0,0,0,0,0,0,0,0,0,0,0,369,
scooby_state_43a688|21|1 368,0,0,1,0,0,0,0,0,0,0,0,0,0,0,369,
scooby_state_43a680|1|1 365,0,1,0,1,0,0,1,0,0,1,0,0,0,0,369,
scooby_state_43a688|37|1 369,0,0,0,0,0,0,0,0,0,0,0,0,0,0,369,
scooby_state_43a688|33|1 369,0,0,0,0,0,0,0,0,0,0,0,0,0,0,369,
scooby_state_43a680|3|1 369,0,0,0,0,0,0,0,0,0,0,0,0,0,0,369,
scooby_state_43a680|55|1 369,0,0,0,0,0,0,0,0,0,0,0,0,0,0,369,
scooby_state_43a688|25|1 369,0,0,0,0,0,0,0,0,0,0,0,0,0,0,369,
scooby_state_43a680|60|1 369,0,0,0,0,0,0,0,0,0,0,0,0,0,0,369,
scooby_state_43a680|17|1 367,0,0,0,1,0,0,0,0,0,0,0,0,0,1,369,
scooby_state_43a688|45|1 369,0,0,0,0,0,0,0,0,0,0,0,0,0,0,369,
scooby_state_43a688|23|1 367,0,0,0,0,0,0,0,1,0,0,1,0,0,0,369,
scooby_state_43a688|49|1 368,0,0,0,0,0,0,0,0,0,0,1,0,0,0,369,
scooby_state_43a688|24|1 368,0,0,0,0,0,0,0,0,0,0,0,0,0,1,369,
scooby_state_43a680|57|1 367,1,0,0,0,0,0,0,0,0,0,0,0,0,1,369,
scooby_state_43a680|2|1 369,0,0,0,0,0,0,0,0,0,0,0,0,0,0,369,
scooby_state_43a688|47|1 369,0,0,0,0,0,0,0,0,0,0,0,0,0,0,369,
scooby_state_43a680|18|1 369,0,0,0,0,0,0,0,0,0,0,0,0,0,0,369,
scooby_state_43a680|62|1 368,0,0,0,0,0,0,0,0,1,0,0,0,0,0,369,
scooby_state_43a688|48|1 368,0,0,0,0,0,1,0,0,0,0,0,0,0,0,369,
scooby_state_43a680|6|1 367,0,0,0,0,1,0,1,0,0,0,0,0,0,0,369,
scooby_state_43a688|30|1 368,0,0,0,0,0,0,0,0,0,0,0,0,0,1,369,
scooby_state_43a688|29|1 369,0,0,0,0,0,0,0,0,0,0,0,0,0,0,369,
scooby_state_43a680|59|1 368,0,0,0,0,0,0,0,0,0,0,0,0,0,1,369,
scooby_state_43a680|15|1 369,0,0,0,0,0,0,0,0,0,0,0,0,0,0,369,
scooby_state_43a680|7|1 368,0,0,0,0,0,0,0,1,0,0,0,0,0,0,369,
scooby_state_43a688|22|1 369,0,0,0,0,0,0,0,0,0,0,0,0,0,0,369,
scooby_state_43a680|63|1 369,0,0,0,0,0,0,0,0,0,0,0,0,0,0,369,
scooby_state_43a680|0|0 369,0,0,0,0,0,0,0,0,0,0,0,0,0,0,369,
scooby_state_43a688|31|1 368,0,0,0,0,0,0,0,0,0,0,0,0,0,1,369,
scooby_state_43a680|16|1 369,0,0,0,0,0,0,0,0,0,0,0,0,0,0,369,
scooby_state_43a688|32|1 369,0,0,0,0,0,0,0,0,0,0,0,0,0,0,369,
scooby_state_43a688|43|1 369,0,0,0,0,0,0,0,0,0,0,0,0,0,0,369,
scooby_state_43a688|35|1 368,0,0,0,0,0,1,0,0,0,0,0,0,0,0,369,
scooby_state_43a688|36|1 367,0,0,0,0,0,1,0,0,0,0,1,0,0,0,369,
scooby_state_43a680|61|1 369,0,0,0,0,0,0,0,0,0,0,0,0,0,0,369,
scooby_state_43a688|38|1 367,0,0,0,0,0,0,1,0,0,0,1,0,0,0,369,
scooby_state_43a688|40|1 368,0,0,0,0,0,0,0,0,0,1,0,0,0,0,369,
scooby_state_43a680|5|1 369,0,0,0,0,0,0,0,0,0,0,0,0,0,0,369,
scooby_state_43a680|10|1 367,0,0,0,0,0,0,0,0,1,0,0,0,0,1,369,
scooby_state_43a688|41|1 367,0,0,0,0,0,0,0,1,0,0,0,1,0,0,369,
scooby_state_43a688|39|1 369,0,0,0,0,0,0,0,0,0,0,0,0,0,0,369,
scooby_state_43a680|11|1 366,1,1,0,1,0,0,0,0,0,0,0,0,0,0,369,
scooby_state_43a688|42|1 369,0,0,0,0,0,0,0,0,0,0,0,0,0,0,369,
scooby_state_43a680|19|1 369,0,0,0,0,0,0,0,0,0,0,0,0,0,0,369,
scooby_state_43a688|20|1 369,0,0,0,0,0,0,0,0,0,0,0,0,0,0,369,
scooby_state_43a680|13|1 367,0,0,0,0,0,0,0,1,0,1,0,0,0,0,369,
scooby_state_43a680|14|1 369,0,0,0,0,0,0,0,0,0,0,0,0,0,0,369,
scooby_state_43a688|28|1 368,0,0,0,1,0,0,0,0,0,0,0,0,0,0,369,
scooby_state_43a680|8|1 369,0,0,0,0,0,0,0,0,0,0,0,0,0,0,369,
scooby_state_43a680|56|1 369,0,0,0,0,0,0,0,0,0,0,0,0,0,0,369,
scooby_state_43a680|26|1 361,0,0,0,0,0,0,0,0,0,0,0,0,0,0,361,
scooby_state_43a103|37|1 359,0,0,0,0,0,0,0,0,0,1,0,0,0,0,360,
scooby_state_43a103|58|1 359,0,0,0,0,0,0,0,0,1,0,0,0,0,0,360,
scooby_state_43a0c0|52|1 359,0,0,0,0,0,0,0,0,0,0,1,0,0,0,360,
scooby_state_43a158|27|1 359,0,0,0,0,0,1,0,0,0,0,0,0,0,0,360,
scooby_state_43a0ef|42|1 359,0,0,0,0,0,0,0,0,0,0,1,0,0,0,360,
scooby_state_43a0ef|39|1 360,0,0,0,0,0,0,0,0,0,0,0,0,0,0,360,
scooby_state_43a0c0|42|1 358,0,0,0,1,0,0,0,0,0,0,0,0,1,0,360,
scooby_state_43a158|33|1 359,0,0,0,0,0,1,0,0,0,0,0,0,0,0,360,
scooby_state_43a0ef|41|1 359,0,0,1,0,0,0,0,0,0,0,0,0,0,0,360,
scooby_state_43a680|30|1 360,0,0,0,0,0,0,0,0,0,0,0,0,0,0,360,
scooby_state_43a146|27|1 360,0,0,0,0,0,0,0,0,0,0,0,0,0,0,360,
scooby_state_43a0cf|21|1 360,0,0,0,0,0,0,0,0,0,0,0,0,0,0,360,
scooby_state_43a158|45|1 360,0,0,0,0,0,0,0,0,0,0,0,0,0,0,360,
scooby_state_43a146|26|1 359,0,0,0,0,0,0,0,0,0,1,0,0,0,0,360,
scooby_state_43a146|35|1 360,0,0,0,0,0,0,0,0,0,0,0,0,0,0,360,
scooby_state_43a0cf|29|1 359,0,0,0,0,0,1,0,0,0,0,0,0,0,0,360,
scooby_state_43a0c0|40|1 360,0,0,0,0,0,0,0,0,0,0,0,0,0,0,360,
scooby_state_43a158|22|1 360,0,0,0,0,0,0,0,0,0,0,0,0,0,0,360,
scooby_state_43a146|28|1 360,0,0,0,0,0,0,0,0,0,0,0,0,0,0,360,
scooby_state_43a680|45|1 359,0,0,0,0,0,0,0,0,0,0,1,0,0,0,360,
scooby_state_43a0ef|48|1 360,0,0,0,0,0,0,0,0,0,0,0,0,0,0,360,
scooby_state_43a0d9|35|1 360,0,0,0,0,0,0,0,0,0,0,0,0,0,0,360,
scooby_state_43a0fd|26|1 360,0,0,0,0,0,0,0,0,0,0,0,0,0,0,360,
scooby_state_43a0ef|49|1 358,1,0,1,0,0,0,0,0,0,0,0,0,0,0,360,
scooby_state_43a0cf|25|1 360,0,0,0,0,0,0,0,0,0,0,0,0,0,0,360,
scooby_state_43a688|53|1 359,0,1,0,0,0,0,0,0,0,0,0,0,0,0,360,
scooby_state_43a0fd|24|1 360,0,0,0,0,0,0,0,0,0,0,0,0,0,0,360,
scooby_state_43a0fd|5|1 360,0,0,0,0,0,0,0,0,0,0,0,0,0,0,360,
scooby_state_43a0d9|33|1 359,1,0,0,0,0,0,0,0,0,0,0,0,0,0,360,
scooby_state_43a0d9|36|1 359,0,0,0,0,0,0,0,0,0,0,0,0,0,1,360,
scooby_state_43a103|33|1 359,1,0,0,0,0,0,0,0,0,0,0,0,0,0,360,
scooby_state_43a0ef|45|1 360,0,0,0,0,0,0,0,0,0,0,0,0,0,0,360,
scooby_state_43a0d9|34|1 359,0,0,0,0,0,0,0,0,0,0,0,1,0,0,360,
scooby_state_43a0fd|9|1 358,0,0,1,0,0,0,0,0,0,1,0,0,0,0,360,
scooby_state_43a146|24|1 360,0,0,0,0,0,0,0,0,0,0,0,0,0,0,360,
scooby_state_43a103|36|1 360,0,0,0,0,0,0,0,0,0,0,0,0,0,0,360,
scooby_state_43a103|34|1 360,0,0,0,0,0,0,0,0,0,0,0,0,0,0,360,
scooby_state_43a0ef|38|1 359,0,0,0,1,0,0,0,0,0,0,0,0,0,0,360,
scooby_state_43a0c0|39|1 360,0,0,0,0,0,0,0,0,0,0,0,0,0,0,360,
scooby_state_43a103|35|1 360,0,0,0,0,0,0,0,0,0,0,0,0,0,0,360,
scooby_state_43a146|36|1 359,0,0,0,0,0,1,0,0,0,0,0,0,0,0,360,
scooby_state_43a0cf|23|1 358,0,0,0,0,0,1,0,0,1,0,0,0,0,0,360,
scooby_state_43a0fd|17|1 359,0,0,0,0,0,1,0,0,0,0,0,0,0,0,360,
scooby_state_43a103|48|1 360,0,0,0,0,0,0,0,0,0,0,0,0,0,0,360,
scooby_state_43a0cf|18|1 359,0,0,0,0,0,0,0,0,0,0,1,0,0,0,360,
scooby_state_43a146|38|1 359,0,0,1,0,0,0,0,0,0,0,0,0,0,0,360,
scooby_state_43a103|38|1 359,0,0,0,0,1,0,0,0,0,0,0,0,0,0,360,
scooby_state_43a0cf|26|1 358,0,0,0,1,0,0,0,0,0,0,0,1,0,0,360,
scooby_state_43a0d9|57|1 359,0,0,0,1,0,0,0,0,0,0,0,0,0,0,360,
scooby_state_43a0cf|20|1 357,0,0,0,0,0,0,1,0,0,0,1,0,0,1,360,
scooby_state_43a0c0|54|1 360,0,0,0,0,0,0,0,0,0,0,0,0,0,0,360,
scooby_state_43a158|40|1 359,1,0,0,0,0,0,0,0,0,0,0,0,0,0,360,
scooby_state_43a146|41|1 360,0,0,0,0,0,0,0,0,0,0,0,0,0,0,360,
scooby_state_43a103|51|1 360,0,0,0,0,0,0,0,0,0,0,0,0,0,0,360,
scooby_state_43a0ef|55|1 360,0,0,0,0,0,0,0,0,0,0,0,0,0,0,360,
scooby_state_43a0cf|5|1 359,0,0,0,0,0,0,0,0,1,0,0,0,0,0,360,
scooby_state_43a0fd|8|1 356,0,0,0,1,0,0,0,1,1,0,1,0,0,0,360,
scooby_state_43a680|47|1 360,0,0,0,0,0,0,0,0,0,0,0,0,0,0,360,
scooby_state_43a0cf|3|1 360,0,0,0,0,0,0,0,0,0,0,0,0,0,0,360,
scooby_state_43a146|43|1 359,0,0,0,0,0,1,0,0,0,0,0,0,0,0,360,
scooby_state_43a103|53|1 360,0,0,0,0,0,0,0,0,0,0,0,0,0,0,360,
scooby_state_43a0d9|32|1 360,0,0,0,0,0,0,0,0,0,0,0,0,0,0,360,
scooby_state_43a0d9|54|1 358,0,0,0,1,0,0,0,0,0,0,1,0,0,0,360,
scooby_state_43a158|43|1 359,0,0,0,0,0,0,0,0,0,0,1,0,0,0,360,
scooby_state_43a0c0|58|1 360,0,0,0,0,0,0,0,0,0,0,0,0,0,0,360,
scooby_state_43a0d9|55|1 359,1,0,0,0,0,0,0,0,0,0,0,0,0,0,360,
scooby_state_43a0c0|59|1 359,0,0,0,0,0,0,0,0,0,0,0,0,0,1,360,
scooby_state_43a0ef|47|1 360,0,0,0,0,0,0,0,0,0,0,0,0,0,0,360,
scooby_state_43a0ef|58|1 360,0,0,0,0,0,0,0,0,0,0,0,0,0,0,360,
scooby_state_43a0ef|59|1 359,0,0,0,0,0,0,0,1,0,0,0,0,0,0,360,
scooby_state_43a0ef|40|1 360,0,0,0,0,0,0,0,0,0,0,0,0,0,0,360,
scooby_state_43a0c0|46|1 359,0,0,0,0,0,0,1,0,0,0,0,0,0,0,360,
scooby_state_43a688|51|1 359,0,0,0,0,0,1,0,0,0,0,0,0,0,0,360,
scooby_state_43a0ef|60|1 359,0,0,0,0,0,0,0,0,0,0,0,1,0,0,360,
scooby_state_43a146|25|1 359,0,0,0,0,0,0,0,0,0,1,0,0,0,0,360,
scooby_state_43a146|30|1 360,0,0,0,0,0,0,0,0,0,0,0,0,0,0,360,
scooby_state_43a158|30|1 360,0,0,0,0,0,0,0,0,0,0,0,0,0,0,360,
scooby_state_43a0c0|45|1 359,0,0,0,1,0,0,0,0,0,0,0,0,0,0,360,
scooby_state_43a103|49|1 359,0,0,0,0,0,0,0,0,0,0,1,0,0,0,360,
scooby_state_43a158|23|1 359,1,0,0,0,0,0,0,0,0,0,0,0,0,0,360,
scooby_state_43a103|41|1 360,0,0,0,0,0,0,0,0,0,0,0,0,0,0,360,
scooby_state_43a146|31|1 359,0,0,0,0,0,1,0,0,0,0,0,0,0,0,360,
scooby_state_43a0d9|42|1 360,0,0,0,0,0,0,0,0,0,0,0,0,0,0,360,
scooby_state_43a0c0|53|1 360,0,0,0,0,0,0,0,0,0,0,0,0,0,0,360,
scooby_state_43a680|29|1 360,0,0,0,0,0,0,0,0,0,0,0,0,0,0,360,
scooby_state_43a103|56|1 360,0,0,0,0,0,0,0,0,0,0,0,0,0,0,360,
scooby_state_43a103|39|1 360,0,0,0,0,0,0,0,0,0,0,0,0,0,0,360,
scooby_state_43a158|31|1 360,0,0,0,0,0,0,0,0,0,0,0,0,0,0,360,
scooby_state_43a0d9|43|1 360,0,0,0,0,0,0,0,0,0,0,0,0,0,0,360,
scooby_state_43a0ef|46|1 359,0,0,0,0,0,0,0,0,0,0,0,1,0,0,360,
scooby_state_43a146|33|1 359,1,0,0,0,0,0,0,0,0,0,0,0,0,0,360,
scooby_state_43a688|60|1 360,0,0,0,0,0,0,0,0,0,0,0,0,0,0,360,
scooby_state_43a0fd|13|1 360,0,0,0,0,0,0,0,0,0,0,0,0,0,0,360,
scooby_state_43a0d9|51|1 358,0,0,0,0,0,0,0,1,0,0,1,0,0,0,360,
scooby_state_43a103|44|1 359,0,0,0,0,0,0,0,0,0,0,0,0,1,0,360,
scooby_state_43a158|47|1 358,0,0,0,1,0,0,0,0,1,0,0,0,0,0,360,
scooby_state_43a103|45|1 359,0,0,0,0,0,0,1,0,0,0,0,0,0,0,360,
scooby_state_43a0c0|50|1 360,0,0,0,0,0,0,0,0,0,0,0,0,0,0,360,
scooby_state_43a0fd|16|1 360,0,0,0,0,0,0,0,0,0,0,0,0,0,0,360,
scooby_state_43a158|35|1 360,0,0,0,0,0,0,0,0,0,0,0,0,0,0,360,
scooby_state_43a0cf|24|1 360,0,0,0,0,0,0,0,0,0,0,0,0,0,0,360,
scooby_state_43a680|25|1 359,1,0,0,0,0,0,0,0,0,0,0,0,0,0,360,
scooby_state_43a0c0|41|1 360,0,0,0,0,0,0,0,0,0,0,0,0,0,0,360,
scooby_state_43a0ef|44|1 359,0,0,0,0,0,0,0,0,1,0,0,0,0,0,360,
scooby_state_43a0c0|43|1 360,0,0,0,0,0,0,0,0,0,0,0,0,0,0,360,
scooby_state_43a688|18|1 359,0,0,0,0,0,0,0,0,0,0,0,1,0,0,360,
scooby_state_43a0fd|4|1 360,0,0,0,0,0,0,0,0,0,0,0,0,0,0,360,
scooby_state_43a0c0|62|1 360,0,0,0,0,0,0,0,0,0,0,0,0,0,0,360,
scooby_state_43a103|32|1 360,0,0,0,0,0,0,0,0,0,0,0,0,0,0,360,
scooby_state_43a158|41|1 359,0,0,0,0,0,0,0,0,0,0,0,0,0,1,360,
scooby_state_43a103|57|1 360,0,0,0,0,0,0,0,0,0,0,0,0,0,0,360,
scooby_state_43a0c0|61|1 360,0,0,0,0,0,0,0,0,0,0,0,0,0,0,360,
scooby_state_43a0c0|60|1 360,0,0,0,0,0,0,0,0,0,0,0,0,0,0,360,
scooby_state_43a0c0|63|1 359,0,0,0,0,0,0,0,0,0,0,0,1,0,0,360,
scooby_state_43a0d9|60|1 358,0,0,0,0,1,0,0,0,0,0,0,1,0,0,360,
scooby_state_43a0cf|11|1 360,0,0,0,0,0,0,0,0,0,0,0,0,0,0,360,
scooby_state_43a103|54|1 360,0,0,0,0,0,0,0,0,0,0,0,0,0,0,360,
scooby_state_43a146|49|1 360,0,0,0,0,0,0,0,0,0,0,0,0,0,0,360,
scooby_state_43a0fd|19|1 359,0,1,0,0,0,0,0,0,0,0,0,0,0,0,360,
scooby_state_43a0d9|38|1 360,0,0,0,0,0,0,0,0,0,0,0,0,0,0,360,
scooby_state_43a0d9|44|1 360,0,0,0,0,0,0,0,0,0,0,0,0,0,0,360,
scooby_state_43a0cf|7|1 360,0,0,0,0,0,0,0,0,0,0,0,0,0,0,360,
scooby_state_43a158|32|1 360,0,0,0,0,0,0,0,0,0,0,0,0,0,0,360,
scooby_state_43a0ef|43|1 359,0,0,0,0,0,0,0,0,0,0,0,0,0,1,360,
scooby_state_43a103|31|1 360,0,0,0,0,0,0,0,0,0,0,0,0,0,0,360,
scooby_state_43a158|42|1 358,0,0,0,1,0,1,0,0,0,0,0,0,0,0,360,
scooby_state_43a0d9|50|1 358,0,0,0,1,0,0,1,0,0,0,0,0,0,0,360,
scooby_state_43a146|32|1 359,1,0,0,0,0,0,0,0,0,0,0,0,0,0,360,
scooby_state_43a0ef|56|1 360,0,0,0,0,0,0,0,0,0,0,0,0,0,0,360,
scooby_state_43a146|47|1 359,0,0,1,0,0,0,0,0,0,0,0,0,0,0,360,
scooby_state_43a146|40|1 360,0,0,0,0,0,0,0,0,0,0,0,0,0,0,360,
scooby_state_43a0fd|21|1 360,0,0,0,0,0,0,0,0,0,0,0,0,0,0,360,
scooby_state_43a103|43|1 359,0,0,0,0,0,0,0,0,1,0,0,0,0,0,360,
scooby_state_43a0ef|61|1 360,0,0,0,0,0,0,0,0,0,0,0,0,0,0,360,
scooby_state_43a103|42|1 360,0,0,0,0,0,0,0,0,0,0,0,0,0,0,360,
scooby_state_43a0c0|37|1 360,0,0,0,0,0,0,0,0,0,0,0,0,0,0,360,
scooby_state_43a0cf|6|1 359,0,0,0,0,0,0,0,1,0,0,0,0,0,0,360,
scooby_state_43a0ef|57|1 358,0,0,0,0,1,0,0,0,0,0,1,0,0,0,360,
scooby_state_43a0c0|49|1 357,0,0,2,0,0,0,0,0,1,0,0,0,0,0,360,
scooby_state_43a158|37|1 359,1,0,0,0,0,0,0,0,0,0,0,0,0,0,360,
scooby_state_43a0cf|4|1 359,0,0,0,0,0,0,0,0,0,1,0,0,0,0,360,
scooby_state_43a0cf|9|1 360,0,0,0,0,0,0,0,0,0,0,0,0,0,0,360,
scooby_state_43a146|46|1 358,0,0,0,0,0,1,0,0,0,0,0,0,1,0,360,
scooby_state_43a0c0|55|1 359,0,0,0,0,0,0,0,0,0,1,0,0,0,0,360,
scooby_state_43a0d9|46|1 360,0,0,0,0,0,0,0,0,0,0,0,0,0,0,360,
scooby_state_43a0d9|59|1 360,0,0,0,0,0,0,0,0,0,0,0,0,0,0,360,
scooby_state_43a103|52|1 359,0,0,0,0,0,0,0,0,1,0,0,0,0,0,360,
scooby_state_43a146|22|1 359,0,0,0,0,0,1,0,0,0,0,0,0,0,0,360,
scooby_state_43a0fd|15|1 359,0,1,0,0,0,0,0,0,0,0,0,0,0,0,360,
scooby_state_43a158|48|1 360,0,0,0,0,0,0,0,0,0,0,0,0,0,0,360,
scooby_state_43a103|50|1 359,1,0,0,0,0,0,0,0,0,0,0,0,0,0,360,
scooby_state_43a0cf|8|1 360,0,0,0,0,0,0,0,0,0,0,0,0,0,0,360,
scooby_state_43a0fd|28|1 360,0,0,0,0,0,0,0,0,0,0,0,0,0,0,360,
scooby_state_43a103|47|1 357,0,0,0,1,0,0,1,0,0,0,0,1,0,0,360,
scooby_state_43a146|23|1 359,0,0,0,0,1,0,0,0,0,0,0,0,0,0,360,
scooby_state_43a0fd|2|1 359,0,0,0,0,0,0,0,1,0,0,0,0,0,0,360,
scooby_state_43a158|46|1 360,0,0,0,0,0,0,0,0,0,0,0,0,0,0,360,
scooby_state_43a0ef|37|1 358,0,0,0,0,0,0,0,1,0,0,0,1,0,0,360,
scooby_state_43a688|2|1 360,0,0,0,0,0,0,0,0,0,0,0,0,0,0,360,
scooby_state_43a688|13|1 360,0,0,0,0,0,0,0,0,0,0,0,0,0,0,360,
scooby_state_43a0c0|51|1 359,0,0,0,0,0,0,1,0,0,0,0,0,0,0,360,
scooby_state_43a0cf|12|1 359,0,0,0,0,0,1,0,0,0,0,0,0,0,0,360,
scooby_state_43a146|37|1 359,0,0,0,0,0,0,0,0,1,0,0,0,0,0,360,
scooby_state_43a158|39|1 359,0,1,0,0,0,0,0,0,0,0,0,0,0,0,360,
scooby_state_43a158|24|1 360,0,0,0,0,0,0,0,0,0,0,0,0,0,0,360,
scooby_state_43a0fd|20|1 359,1,0,0,0,0,0,0,0,0,0,0,0,0,0,360,
scooby_state_43a0fd|10|1 359,0,0,1,0,0,0,0,0,0,0,0,0,0,0,360,
scooby_state_43a146|34|1 359,0,0,0,0,1,0,0,0,0,0,0,0,0,0,360,
scooby_state_43a0fd|7|1 359,0,0,0,1,0,0,0,0,0,0,0,0,0,0,360,
scooby_state_43a0c0|48|1 359,0,0,0,0,0,0,0,0,0,0,0,1,0,0,360,
scooby_state_43a0fd|6|1 360,0,0,0,0,0,0,0,0,0,0,0,0,0,0,360,
scooby_state_43a0cf|17|1 358,0,0,0,0,0,0,1,0,1,0,0,0,0,0,360,
scooby_state_43a146|48|1 360,0,0,0,0,0,0,0,0,0,0,0,0,0,0,360,
scooby_state_43a0cf|13|1 360,0,0,0,0,0,0,0,0,0,0,0,0,0,0,360,
scooby_state_43a680|48|1 359,0,0,1,0,0,0,0,0,0,0,0,0,0,0,360,
scooby_state_43a0d9|39|1 360,0,0,0,0,0,0,0,0,0,0,0,0,0,0,360,
scooby_state_43a688|16|1 360,0,0,0,0,0,0,0,0,0,0,0,0,0,0,360,
scooby_state_43a0cf|15|1 360,0,0,0,0,0,0,0,0,0,0,0,0,0,0,360,
scooby_state_43a146|45|1 359,0,0,0,0,0,0,0,0,0,1,0,0,0,0,360,
scooby_state_43a158|21|1 358,0,0,0,0,0,1,0,0,1,0,0,0,0,0,360,
scooby_state_43a688|7|1 360,0,0,0,0,0,0,0,0,0,0,0,0,0,0,360,
scooby_state_43a0d9|53|1 360,0,0,0,0,0,0,0,0,0,0,0,0,0,0,360,
scooby_state_43a0d9|47|1 359,0,0,0,0,0,0,0,0,0,1,0,0,0,0,360,
scooby_state_43a0d9|58|1 358,0,0,0,0,1,1,0,0,0,0,0,0,0,0,360,
scooby_state_43a0cf|10|1 360,0,0,0,0,0,0,0,0,0,0,0,0,0,0,360,
scooby_state_43a0fd|18|1 359,0,0,0,0,0,0,0,0,0,0,0,1,0,0,360,
scooby_state_43a0d9|52|1 360,0,0,0,0,0,0,0,0,0,0,0,0,0,0,360,
scooby_state_43a0fd|29|1 360,0,0,0,0,0,0,0,0,0,0,0,0,0,0,360,
scooby_state_43a158|25|1 359,0,0,0,0,0,0,0,0,0,0,1,0,0,0,360,
scooby_state_43a0fd|25|1 360,0,0,0,0,0,0,0,0,0,0,0,0,0,0,360,
scooby_state_43a0cf|27|1 360,0,0,0,0,0,0,0,0,0,0,0,0,0,0,360,
scooby_state_43a158|29|1 358,0,1,0,0,0,0,0,0,1,0,0,0,0,0,360,
scooby_state_43a0fd|11|1 359,0,0,0,0,0,0,0,1,0,0,0,0,0,0,360,
scooby_state_43a0fd|12|1 359,0,1,0,0,0,0,0,0,0,0,0,0,0,0,360,
scooby_state_43a0ef|50|1 359,0,0,0,0,0,0,0,0,0,0,0,0,0,1,360,
scooby_state_43a0cf|14|1 360,0,0,0,0,0,0,0,0,0,0,0,0,0,0,360,
scooby_state_43a103|40|1 358,0,0,0,1,0,0,0,0,0,0,1,0,0,0,360,
scooby_state_43a0ef|36|1 359,0,0,0,0,0,0,1,0,0,0,0,0,0,0,360,
scooby_state_43a0c0|57|1 359,0,0,0,0,0,0,0,0,1,0,0,0,0,0,360,
scooby_state_43a158|34|1 360,0,0,0,0,0,0,0,0,0,0,0,0,0,0,360,
scooby_state_43a0cf|2|1 360,0,0,0,0,0,0,0,0,0,0,0,0,0,0,360,
scooby_state_43a0ef|62|1 359,1,0,0,0,0,0,0,0,0,0,0,0,0,0,360,
scooby_state_43a146|29|1 360,0,0,0,0,0,0,0,0,0,0,0,0,0,0,360,
scooby_state_43a146|44|1 357,0,1,0,0,0,0,1,0,0,0,0,0,0,1,360,
scooby_state_43a0ef|54|1 360,0,0,0,0,0,0,0,0,0,0,0,0,0,0,360,
scooby_state_43a0d9|41|1 359,0,0,1,0,0,0,0,0,0,0,0,0,0,0,360,
scooby_state_43a0ef|52|1 359,0,0,0,0,0,0,1,0,0,0,0,0,0,0,360,
scooby_state_43a0c0|38|1 360,0,0,0,0,0,0,0,0,0,0,0,0,0,0,360,
scooby_state_43a0c0|44|1 359,0,0,0,0,0,0,0,0,0,0,0,0,1,0,360,
scooby_state_43a688|56|1 359,0,0,0,0,0,1,0,0,0,0,0,0,0,0,360,
scooby_state_43a680|22|1 360,0,0,0,0,0,0,0,0,0,0,0,0,0,0,360,
scooby_state_43a680|54|1 360,0,0,0,0,0,0,0,0,0,0,0,0,0,0,360,
scooby_state_43a0cf|22|1 359,0,1,0,0,0,0,0,0,0,0,0,0,0,0,360,
scooby_state_43a680|53|1 359,0,0,0,0,0,0,0,1,0,0,0,0,0,0,360,
scooby_state_43a688|19|1 360,0,0,0,0,0,0,0,0,0,0,0,0,0,0,360,
scooby_state_43a680|51|1 360,0,0,0,0,0,0,0,0,0,0,0,0,0,0,360,
scooby_state_43a680|52|1 360,0,0,0,0,0,0,0,0,0,0,0,0,0,0,360,
scooby_state_43a0c0|56|1 360,0,0,0,0,0,0,0,0,0,0,0,0,0,0,360,
scooby_state_43a688|17|1 359,0,0,1,0,0,0,0,0,0,0,0,0,0,0,360,
scooby_state_43a680|50|1 360,0,0,0,0,0,0,0,0,0,0,0,0,0,0,360,
scooby_state_43a680|49|1 360,0,0,0,0,0,0,0,0,0,0,0,0,0,0,360,
scooby_state_43a688|15|1 359,0,0,0,0,0,0,0,0,0,1,0,0,0,0,360,
scooby_state_43a688|14|1 360,0,0,0,0,0,0,0,0,0,0,0,0,0,0,360,
scooby_state_43a680|46|1 360,0,0,0,0,0,0,0,0,0,0,0,0,0,0,360,
scooby_state_43a158|38|1 359,0,0,0,0,1,0,0,0,0,0,0,0,0,0,360,
scooby_state_43a688|12|1 360,0,0,0,0,0,0,0,0,0,0,0,0,0,0,360,
scooby_state_43a680|44|1 359,0,0,0,1,0,0,0,0,0,0,0,0,0,0,360,
scooby_state_43a688|11|1 359,0,0,0,0,0,0,0,1,0,0,0,0,0,0,360,
scooby_state_43a680|43|1 359,0,0,0,1,0,0,0,0,0,0,0,0,0,0,360,
scooby_state_43a688|9|1 360,0,0,0,0,0,0,0,0,0,0,0,0,0,0,360,
scooby_state_43a158|26|1 358,0,0,0,0,0,0,0,0,0,0,0,0,0,2,360,
scooby_state_43a680|42|1 360,0,0,0,0,0,0,0,0,0,0,0,0,0,0,360,
scooby_state_43a688|8|1 359,1,0,0,0,0,0,0,0,0,0,0,0,0,0,360,
scooby_state_43a680|41|1 358,0,0,0,0,1,1,0,0,0,0,0,0,0,0,360,
scooby_state_43a680|40|1 359,0,0,0,0,0,0,0,0,0,0,0,0,0,1,360,
scooby_state_43a688|6|1 359,0,0,0,0,0,1,0,0,0,0,0,0,0,0,360,
scooby_state_43a680|39|1 358,0,0,0,1,0,0,0,0,0,0,0,0,0,1,360,
scooby_state_43a688|5|1 360,0,0,0,0,0,0,0,0,0,0,0,0,0,0,360,
scooby_state_43a0d9|45|1 360,0,0,0,0,0,0,0,0,0,0,0,0,0,0,360,
scooby_state_43a688|50|1 359,0,0,0,0,0,0,1,0,0,0,0,0,0,0,360,
scooby_state_43a0fd|14|1 360,0,0,0,0,0,0,0,0,0,0,0,0,0,0,360,
scooby_state_43a146|42|1 359,0,0,0,0,0,0,0,0,0,0,0,1,0,0,360,
scooby_state_43a0ef|53|1 359,0,0,1,0,0,0,0,0,0,0,0,0,0,0,360,
scooby_state_43a0fd|3|1 359,0,0,0,0,0,0,1,0,0,0,0,0,0,0,360,
scooby_state_43a0d9|48|1 359,0,0,0,1,0,0,0,0,0,0,0,0,0,0,360,
scooby_state_43a158|44|1 360,0,0,0,0,0,0,0,0,0,0,0,0,0,0,360,
scooby_state_43a0fd|22|1 359,0,0,0,0,0,0,0,0,1,0,0,0,0,0,360,
scooby_state_43a688|52|1 357,0,2,0,0,0,0,1,0,0,0,0,0,0,0,360,
scooby_state_43a680|24|1 360,0,0,0,0,0,0,0,0,0,0,0,0,0,0,360,
scooby_state_43a158|28|1 360,0,0,0,0,0,0,0,0,0,0,0,0,0,0,360,
scooby_state_43a146|39|1 358,0,0,0,0,0,0,0,1,0,0,1,0,0,0,360,
scooby_state_43a688|59|1 360,0,0,0,0,0,0,0,0,0,0,0,0,0,0,360,
scooby_state_43a0cf|19|1 360,0,0,0,0,0,0,0,0,0,0,0,0,0,0,360,
scooby_state_43a680|28|1 357,0,0,0,0,1,0,1,0,1,0,0,0,0,0,360,
scooby_state_43a0d9|49|1 360,0,0,0,0,0,0,0,0,0,0,0,0,0,0,360,
scooby_state_43a0d9|37|1 360,0,0,0,0,0,0,0,0,0,0,0,0,0,0,360,
scooby_state_43a103|46|1 360,0,0,0,0,0,0,0,0,0,0,0,0,0,0,360,
scooby_state_43a0fd|1|1 360,0,0,0,0,0,0,0,0,0,0,0,0,0,0,360,
scooby_state_43a0d9|56|1 360,0,0,0,0,0,0,0,0,0,0,0,0,0,0,360,
scooby_state_43a0fd|23|1 360,0,0,0,0,0,0,0,0,0,0,0,0,0,0,360,
scooby_state_43a158|36|1 360,0,0,0,0,0,0,0,0,0,0,0,0,0,0,360,
scooby_state_43a0c0|36|1 360,0,0,0,0,0,0,0,0,0,0,0,0,0,0,360,
scooby_state_43a688|4|1 359,1,0,0,0,0,0,0,0,0,0,0,0,0,0,360,
scooby_state_43a688|1|1 360,0,0,0,0,0,0,0,0,0,0,0,0,0,0,360,
scooby_state_43a0d9|40|1 359,1,0,0,0,0,0,0,0,0,0,0,0,0,0,360,
scooby_state_43a680|27|1 360,0,0,0,0,0,0,0,0,0,0,0,0,0,0,360,
scooby_state_43a103|55|1 360,0,0,0,0,0,0,0,0,0,0,0,0,0,0,360,
scooby_state_43a0c0|47|1 359,0,0,0,0,0,0,0,0,0,0,0,1,0,0,360,
scooby_state_43a680|34|1 360,0,0,0,0,0,0,0,0,0,0,0,0,0,0,360,
scooby_state_43a688|58|1 360,0,0,0,0,0,0,0,0,0,0,0,0,0,0,360,
scooby_state_43a688|0|0 360,0,0,0,0,0,0,0,0,0,0,0,0,0,0,360,
scooby_state_43a688|63|1 359,1,0,0,0,0,0,0,0,0,0,0,0,0,0,360,
scooby_state_43a688|62|1 360,0,0,0,0,0,0,0,0,0,0,0,0,0,0,360,
scooby_state_43a680|32|1 360,0,0,0,0,0,0,0,0,0,0,0,0,0,0,360,
scooby_state_43a680|31|1 359,0,0,0,1,0,0,0,0,0,0,0,0,0,0,360,
scooby_state_43a688|54|1 359,1,0,0,0,0,0,0,0,0,0,0,0,0,0,360,
scooby_state_43a0ef|51|1 360,0,0,0,0,0,0,0,0,0,0,0,0,0,0,360,
scooby_state_43a688|61|1 359,0,0,0,0,0,1,0,0,0,0,0,0,0,0,360,
scooby_state_43a680|23|1 358,0,0,0,0,0,0,0,0,0,1,0,0,1,0,360,
scooby_state_43a0cf|16|1 359,0,0,0,0,0,0,0,0,0,0,1,0,0,0,360,
scooby_state_43a680|21|1 359,0,0,0,0,0,0,0,0,0,0,1,0,0,0,360,
scooby_state_43a688|10|1 359,0,0,0,0,0,0,0,0,1,0,0,0,0,0,360,
scooby_state_43a103|59|1 359,0,0,0,0,0,1,0,0,0,0,0,0,0,0,360,
scooby_state_43a680|20|1 360,0,0,0,0,0,0,0,0,0,0,0,0,0,0,360,
scooby_state_43a0ef|35|1 360,0,0,0,0,0,0,0,0,0,0,0,0,0,0,360,
scooby_state_43a680|33|1 360,0,0,0,0,0,0,0,0,0,0,0,0,0,0,360,
scooby_state_43a680|35|1 359,0,0,0,0,0,0,0,0,1,0,0,0,0,0,360,
scooby_state_43a688|3|1 360,0,0,0,0,0,0,0,0,0,0,0,0,0,0,360,
scooby_state_43a0cf|28|1 359,0,1,0,0,0,0,0,0,0,0,0,0,0,0,360,
scooby_state_43a680|37|1 360,0,0,0,0,0,0,0,0,0,0,0,0,0,0,360,
scooby_state_43a680|36|1 359,0,0,0,0,0,0,0,0,1,0,0,0,0,0,360,
scooby_state_43a688|55|1 359,0,1,0,0,0,0,0,0,0,0,0,0,0,0,360,
scooby_state_43a0fd|27|1 358,0,0,0,0,0,1,0,0,0,0,1,0,0,0,360,
scooby_state_43a688|57|1 358,0,0,0,0,0,0,0,1,0,0,1,0,0,0,360,
scooby_state_43a680|38|1 359,0,0,0,1,0,0,0,0,0,0,0,0,0,0,360,
scooby_state_43a17d|0|0 356,0,0,0,0,0,0,1,0,0,0,0,0,0,0,357,
scooby_state_439ed0|0|0 357,0,0,0,0,0,0,0,0,0,0,0,0,0,0,357,
scooby_state_43a0d5|0|0 357,0,0,0,0,0,0,0,0,0,0,0,0,0,0,357,
scooby_state_439753|0|0 352,0,0,0,0,0,0,0,1,0,1,0,0,0,0,354,
scooby_state_439720|0|0 353,0,0,0,0,0,0,0,0,0,0,0,0,0,0,353,
scooby_state_43a146|5|1 352,0,0,0,0,0,0,0,0,0,0,0,0,0,0,352,
scooby_state_43a103|4|1 351,0,0,1,0,0,0,0,0,0,0,0,0,0,0,352,
scooby_state_43a183|6|1 352,0,0,0,0,0,0,0,0,0,0,0,0,0,0,352,
scooby_state_43a0c0|3|1 351,0,0,0,0,0,1,0,0,0,0,0,0,0,0,352,
scooby_state_43a183|18|1 350,0,0,0,0,1,0,0,0,0,0,0,0,0,0,351,
scooby_state_43a0d5|63|1 350,0,0,0,0,0,0,0,0,0,0,0,0,1,0,351,
scooby_state_439ed4|6|1 351,0,0,0,0,0,0,0,0,0,0,0,0,0,0,351,
scooby_state_43a0d9|9|1 351,0,0,0,0,0,0,0,0,0,0,0,0,0,0,351,
scooby_state_43a0cf|32|1 349,0,0,1,0,0,0,0,0,0,0,0,1,0,0,351,
scooby_state_439ed4|10|1 350,0,0,0,0,0,0,0,1,0,0,0,0,0,0,351,
scooby_state_439ed4|33|1 351,0,0,0,0,0,0,0,0,0,0,0,0,0,0,351,
scooby_state_43a0d9|5|1 351,0,0,0,0,0,0,0,0,0,0,0,0,0,0,351,
scooby_state_43a17d|24|1 350,0,0,0,1,0,0,0,0,0,0,0,0,0,0,351,
scooby_state_43a158|58|1 351,0,0,0,0,0,0,0,0,0,0,0,0,0,0,351,
scooby_state_43a0d5|6|1 351,0,0,0,0,0,0,0,0,0,0,0,0,0,0,351,
scooby_state_43a0c0|14|1 351,0,0,0,0,0,0,0,0,0,0,0,0,0,0,351,
scooby_state_43a146|1|1 351,0,0,0,0,0,0,0,0,0,0,0,0,0,0,351,
scooby_state_43a103|63|1 350,0,0,0,0,0,0,0,1,0,0,0,0,0,0,351,
scooby_state_439ed4|22|1 351,0,0,0,0,0,0,0,0,0,0,0,0,0,0,351,
scooby_state_439ed4|15|1 351,0,0,0,0,0,0,0,0,0,0,0,0,0,0,351,
scooby_state_439ed4|31|1 351,0,0,0,0,0,0,0,0,0,0,0,0,0,0,351,
scooby_state_439ed4|29|1 350,0,0,0,0,0,0,0,0,1,0,0,0,0,0,351,
scooby_state_43a0cf|45|1 350,0,0,0,0,0,0,0,0,0,0,1,0,0,0,351,
scooby_state_43a183|13|1 349,0,0,0,0,0,0,1,0,0,1,0,0,0,0,351,
scooby_state_43a0c0|6|1 350,0,0,0,0,0,0,1,0,0,0,0,0,0,0,351,
scooby_state_43a103|25|1 350,0,0,0,0,0,0,0,1,0,0,0,0,0,0,351,
scooby_state_439ed4|7|1 351,0,0,0,0,0,0,0,0,0,0,0,0,0,0,351,
scooby_state_439ed4|23|1 350,0,0,1,0,0,0,0,0,0,0,0,0,0,0,351,
scooby_state_43a0d5|25|1 350,0,1,0,0,0,0,0,0,0,0,0,0,0,0,351,
scooby_state_439ed4|36|1 351,0,0,0,0,0,0,0,0,0,0,0,0,0,0,351,
scooby_state_439ed4|48|1 351,0,0,0,0,0,0,0,0,0,0,0,0,0,0,351,
scooby_state_43a158|51|1 350,0,0,0,0,0,0,0,0,0,0,0,1,0,0,351,
scooby_state_43a0d5|29|1 351,0,0,0,0,0,0,0,0,0,0,0,0,0,0,351,
scooby_state_439ed4|30|1 351,0,0,0,0,0,0,0,0,0,0,0,0,0,0,351,
scooby_state_43a0cf|1|1 351,0,0,0,0,0,0,0,0,0,0,0,0,0,0,351,
scooby_state_43a17d|4|1 351,0,0,0,0,0,0,0,0,0,0,0,0,0,0,351,
scooby_state_439ed4|47|1 349,0,0,0,0,0,0,0,0,0,0,1,0,1,0,351,
scooby_state_439ed0|3|1 351,0,0,0,0,0,0,0,0,0,0,0,0,0,0,351,
scooby_state_43a0cf|62|1 350,0,0,0,0,0,1,0,0,0,0,0,0,0,0,351,
scooby_state_439ed0|47|1 350,0,0,0,0,1,0,0,0,0,0,0,0,0,0,351,
scooby_state_43a0fd|54|1 351,0,0,0,0,0,0,0,0,0,0,0,0,0,0,351,
scooby_state_43a158|6|1 350,0,0,0,0,0,0,0,0,0,0,0,1,0,0,351,
scooby_state_43a17d|25|1 350,0,0,0,1,0,0,0,0,0,0,0,0,0,0,351,
scooby_state_43a183|1|1 351,0,0,0,0,0,0,0,0,0,0,0,0,0,0,351,
scooby_state_43a0d5|16|1 350,1,0,0,0,0,0,0,0,0,0,0,0,0,0,351,
scooby_state_439ed4|59|1 351,0,0,0,0,0,0,0,0,0,0,0,0,0,0,351,
scooby_state_439ed0|55|1 351,0,0,0,0,0,0,0,0,0,0,0,0,0,0,351,
scooby_state_43a0d9|11|1 351,0,0,0,0,0,0,0,0,0,0,0,0,0,0,351,
scooby_state_439ed4|32|1 349,2,0,0,0,0,0,0,0,0,0,0,0,0,0,351,
scooby_state_43a17d|7|1 351,0,0,0,0,0,0,0,0,0,0,0,0,0,0,351,
scooby_state_439ed4|26|1 350,0,0,0,1,0,0,0,0,0,0,0,0,0,0,351,
scooby_state_439ed4|46|1 351,0,0,0,0,0,0,0,0,0,0,0,0,0,0,351,
scooby_state_43a146|6|1 351,0,0,0,0,0,0,0,0,0,0,0,0,0,0,351,
scooby_state_43a0d5|36|1 351,0,0,0,0,0,0,0,0,0,0,0,0,0,0,351,
scooby_state_439ed0|58|1 351,0,0,0,0,0,0,0,0,0,0,0,0,0,0,351,
scooby_state_43a0cf|36|1 350,0,0,0,0,0,0,0,0,0,1,0,0,0,0,351,
scooby_state_439ed0|17|1 350,0,0,0,0,0,0,0,0,0,0,1,0,0,0,351,
scooby_state_439ed0|19|1 350,0,0,0,0,0,0,0,1,0,0,0,0,0,0,351,
scooby_state_439ed0|20|1 350,0,0,0,0,1,0,0,0,0,0,0,0,0,0,351,
scooby_state_43a0fd|63|1 350,1,0,0,0,0,0,0,0,0,0,0,0,0,0,351,
scooby_state_439ed0|21|1 351,0,0,0,0,0,0,0,0,0,0,0,0,0,0,351,
scooby_state_43a17d|59|1 351,0,0,0,0,0,0,0,0,0,0,0,0,0,0,351,
scooby_state_439ed4|43|1 350,0,0,0,0,0,1,0,0,0,0,0,0,0,0,351,
scooby_state_43a0d5|20|1 351,0,0,0,0,0,0,0,0,0,0,0,0,0,0,351,
scooby_state_439ed0|33|1 351,0,0,0,0,0,0,0,0,0,0,0,0,0,0,351,
scooby_state_439ed4|52|1 351,0,0,0,0,0,0,0,0,0,0,0,0,0,0,351,
scooby_state_439ed4|62|1 350,0,1,0,0,0,0,0,0,0,0,0,0,0,0,351,
scooby_state_439ed0|27|1 351,0,0,0,0,0,0,0,0,0,0,0,0,0,0,351,
scooby_state_43a0d9|30|1 351,0,0,0,0,0,0,0,0,0,0,0,0,0,0,351,
scooby_state_43a0d5|52|1 351,0,0,0,0,0,0,0,0,0,0,0,0,0,0,351,
scooby_state_43a158|18|1 351,0,0,0,0,0,0,0,0,0,0,0,0,0,0,351,
scooby_state_439ed0|40|1 348,0,0,0,0,0,1,0,0,0,0,0,0,2,0,351,
scooby_state_439ed4|37|1 351,0,0,0,0,0,0,0,0,0,0,0,0,0,0,351,
scooby_state_439ed0|28|1 351,0,0,0,0,0,0,0,0,0,0,0,0,0,0,351,
scooby_state_43a0d5|17|1 350,0,0,0,1,0,0,0,0,0,0,0,0,0,0,351,
scooby_state_439ed0|30|1 351,0,0,0,0,0,0,0,0,0,0,0,0,0,0,351,
scooby_state_439ed4|42|1 351,0,0,0,0,0,0,0,0,0,0,0,0,0,0,351,
scooby_state_43a183|39|1 349,0,0,0,0,0,0,0,1,0,0,0,1,0,0,351,
scooby_state_43a0cf|0|0 351,0,0,0,0,0,0,0,0,0,0,0,0,0,0,351,
scooby_state_439ed4|12|1 351,0,0,0,0,0,0,0,0,0,0,0,0,0,0,351,
scooby_state_439ed4|28|1 351,0,0,0,0,0,0,0,0,0,0,0,0,0,0,351,
scooby_state_439ed4|21|1 351,0,0,0,0,0,0,0,0,0,0,0,0,0,0,351,
scooby_state_43a103|15|1 350,1,0,0,0,0,0,0,0,0,0,0,0,0,0,351,
scooby_state_43a17d|54|1 351,0,0,0,0,0,0,0,0,0,0,0,0,0,0,351,
scooby_state_43a146|21|1 351,0,0,0,0,0,0,0,0,0,0,0,0,0,0,351,
scooby_state_43a183|24|1 351,0,0,0,0,0,0,0,0,0,0,0,0,0,0,351,
scooby_state_43a0fd|50|1 350,0,0,0,0,0,0,0,0,0,1,0,0,0,0,351,
scooby_state_43a183|7|1 349,0,0,0,0,0,0,0,0,0,0,1,0,1,0,351,
scooby_state_43a0c0|35|1 350,0,0,0,0,0,0,0,1,0,0,0,0,0,0,351,
scooby_state_43a0d5|53|1 351,0,0,0,0,0,0,0,0,0,0,0,0,0,0,351,
scooby_state_43a0d5|56|1 350,0,1,0,0,0,0,0,0,0,0,0,0,0,0,351,
scooby_state_43a158|19|1 351,0,0,0,0,0,0,0,0,0,0,0,0,0,0,351,
scooby_state_43a183|30|1 351,0,0,0,0,0,0,0,0,0,0,0,0,0,0,351,
scooby_state_43a103|60|1 351,0,0,0,0,0,0,0,0,0,0,0,0,0,0,351,
scooby_state_43a0ef|33|1 351,0,0,0,0,0,0,0,0,0,0,0,0,0,0,351,
scooby_state_43a17d|9|1 349,0,0,1,0,0,0,0,1,0,0,0,0,0,0,351,
scooby_state_439ed4|45|1 350,0,0,0,1,0,0,0,0,0,0,0,0,0,0,351,
scooby_state_439ed4|24|1 351,0,0,0,0,0,0,0,0,0,0,0,0,0,0,351,
scooby_state_43a17d|62|1 351,0,0,0,0,0,0,0,0,0,0,0,0,0,0,351,
scooby_state_439ed4|20|1 350,0,0,1,0,0,0,0,0,0,0,0,0,0,0,351,
scooby_state_439ed0|11|1 351,0,0,0,0,0,0,0,0,0,0,0,0,0,0,351,
scooby_state_43a0fd|42|1 351,0,0,0,0,0,0,0,0,0,0,0,0,0,0,351,
scooby_state_439ed4|1|1 350,0,0,0,0,1,0,0,0,0,0,0,0,0,0,351,
scooby_state_439ed0|25|1 351,0,0,0,0,0,0,0,0,0,0,0,0,0,0,351,
scooby_state_439ed0|16|1 351,0,0,0,0,0,0,0,0,0,0,0,0,0,0,351,
scooby_state_439ed4|53|1 351,0,0,0,0,0,0,0,0,0,0,0,0,0,0,351,
scooby_state_439ed4|55|1 351,0,0,0,0,0,0,0,0,0,0,0,0,0,0,351,
scooby_state_43a0cf|44|1 350,0,0,0,1,0,0,0,0,0,0,0,0,0,0,351,
scooby_state_439ed0|38|1 351,0,0,0,0,0,0,0,0,0,0,0,0,0,0,351,
scooby_state_43a146|55|1 351,0,0,0,0,0,0,0,0,0,0,0,0,0,0,351,
scooby_state_439ed4|49|1 351,0,0,0,0,0,0,0,0,0,0,0,0,0,0,351,
scooby_state_43a0d5|22|1 351,0,0,0,0,0,0,0,0,0,0,0,0,0,0,351,
scooby_state_43a0ef|25|1 350,0,0,1,0,0,0,0,0,0,0,0,0,0,0,351,
scooby_state_43a103|24|1 351,0,0,0,0,0,0,0,0,0,0,0,0,0,0,351,
scooby_state_43a17d|56|1 350,0,0,0,0,0,0,1,0,0,0,0,0,0,0,351,
scooby_state_439ed0|5|1 350,0,0,0,0,1,0,0,0,0,0,0,0,0,0,351,
scooby_state_439ed0|35|1 351,0,0,0,0,0,0,0,0,0,0,0,0,0,0,351,
scooby_state_43a0c0|29|1 350,0,0,0,0,1,0,0,0,0,0,0,0,0,0,351,
scooby_state_439ed4|35|1 351,0,0,0,0,0,0,0,0,0,0,0,0,0,0,351,
scooby_state_43a0d5|59|1 351,0,0,0,0,0,0,0,0,0,0,0,0,0,0,351,
scooby_state_439ed0|10|1 349,0,0,0,0,0,0,0,0,0,0,0,1,1,0,351,
scooby_state_43a158|16|1 350,0,0,0,0,0,0,1,0,0,0,0,0,0,0,351,
scooby_state_43a146|59|1 351,0,0,0,0,0,0,0,0,0,0,0,0,0,0,351,
scooby_state_439ed4|34|1 351,0,0,0,0,0,0,0,0,0,0,0,0,0,0,351,
scooby_state_439ed4|41|1 350,0,0,0,0,1,0,0,0,0,0,0,0,0,0,351,
scooby_state_43a0c0|17|1 349,0,0,0,1,0,0,0,1,0,0,0,0,0,0,351,
scooby_state_43a103|8|1 349,1,0,0,1,0,0,0,0,0,0,0,0,0,0,351,
scooby_state_43a158|8|1 349,0,0,0,0,0,1,0,0,0,1,0,0,0,0,351,
scooby_state_43a158|55|1 351,0,0,0,0,0,0,0,0,0,0,0,0,0,0,351,
scooby_state_43a146|7|1 351,0,0,0,0,0,0,0,0,0,0,0,0,0,0,351,
scooby_state_43a183|10|1 349,1,0,0,0,0,1,0,0,0,0,0,0,0,0,351,
scooby_state_43a0ef|4|1 348,0,0,0,0,0,0,0,1,1,0,0,0,0,1,351,
scooby_state_439ed0|63|1 351,0,0,0,0,0,0,0,0,0,0,0,0,0,0,351,
scooby_state_43a0fd|60|1 350,0,0,0,0,0,0,0,0,1,0,0,0,0,0,351,
scooby_state_439ed0|12|1 351,0,0,0,0,0,0,0,0,0,0,0,0,0,0,351,
scooby_state_43a0ef|3|1 350,0,1,0,0,0,0,0,0,0,0,0,0,0,0,351,
scooby_state_43a17d|60|1 351,0,0,0,0,0,0,0,0,0,0,0,0,0,0,351,
scooby_state_439ed0|32|1 351,0,0,0,0,0,0,0,0,0,0,0,0,0,0,351,
scooby_state_439ed0|15|1 350,0,1,0,0,0,0,0,0,0,0,0,0,0,0,351,
scooby_state_43a183|60|1 351,0,0,0,0,0,0,0,0,0,0,0,0,0,0,351,
scooby_state_43a0fd|55|1 350,0,0,0,0,0,0,0,0,1,0,0,0,0,0,351,
scooby_state_43a0d5|37|1 351,0,0,0,0,0,0,0,0,0,0,0,0,0,0,351,
scooby_state_439ed0|14|1 349,0,0,0,0,0,1,0,0,0,0,1,0,0,0,351,
scooby_state_439ed0|34|1 351,0,0,0,0,0,0,0,0,0,0,0,0,0,0,351,
scooby_state_439ed0|13|1 350,0,0,0,0,0,0,0,0,0,0,0,1,0,0,351,
scooby_state_439ed4|50|1 350,0,0,0,0,0,0,1,0,0,0,0,0,0,0,351,
scooby_state_43a0d5|26|1 350,1,0,0,0,0,0,0,0,0,0,0,0,0,0,351,
scooby_state_43a0d5|23|1 350,0,0,0,0,1,0,0,0,0,0,0,0,0,0,351,
scooby_state_43a183|31|1 351,0,0,0,0,0,0,0,0,0,0,0,0,0,0,351,
scooby_state_43a183|4|1 350,0,0,0,1,0,0,0,0,0,0,0,0,0,0,351,
scooby_state_43a0fd|56|1 351,0,0,0,0,0,0,0,0,0,0,0,0,0,0,351,
scooby_state_43a0cf|54|1 351,0,0,0,0,0,0,0,0,0,0,0,0,0,0,351,
scooby_state_43a17d|34|1 349,0,0,0,1,0,0,0,1,0,0,0,0,0,0,351,
scooby_state_439ed0|31|1 350,0,0,0,0,0,0,0,0,1,0,0,0,0,0,351,
scooby_state_43a17d|18|1 351,0,0,0,0,0,0,0,0,0,0,0,0,0,0,351,
scooby_state_43a0ef|16|1 351,0,0,0,0,0,0,0,0,0,0,0,0,0,0,351,
scooby_state_43a17d|49|1 350,0,0,0,0,0,0,1,0,0,0,0,0,0,0,351,
scooby_state_43a17d|5|1 351,0,0,0,0,0,0,0,0,0,0,0,0,0,0,351,
scooby_state_439ed0|18|1 350,0,0,0,0,0,0,0,0,0,0,1,0,0,0,351,
scooby_state_43a0d5|46|1 349,0,0,0,0,0,0,1,0,0,0,0,0,1,0,351,
scooby_state_43a146|63|1 351,0,0,0,0,0,0,0,0,0,0,0,0,0,0,351,
scooby_state_439ed0|37|1 351,0,0,0,0,0,0,0,0,0,0,0,0,0,0,351,
scooby_state_439ed0|51|1 351,0,0,0,0,0,0,0,0,0,0,0,0,0,0,351,
scooby_state_43a158|49|1 349,0,0,0,1,0,0,0,0,0,0,0,1,0,0,351,
scooby_state_43a0d5|11|1 350,0,0,0,0,1,0,0,0,0,0,0,0,0,0,351,
scooby_state_43a0ef|8|1 350,0,0,0,0,0,0,0,0,0,0,1,0,0,0,351,
scooby_state_43a183|55|1 350,0,0,1,0,0,0,0,0,0,0,0,0,0,0,351,
scooby_state_43a158|17|1 350,0,0,0,0,0,0,0,0,0,0,0,0,0,1,351,
scooby_state_43a183|51|1 351,0,0,0,0,0,0,0,0,0,0,0,0,0,0,351,
scooby_state_43a0cf|46|1 351,0,0,0,0,0,0,0,0,0,0,0,0,0,0,351,
scooby_state_439ed4|25|1 349,0,0,0,0,1,0,0,1,0,0,0,0,0,0,351,
scooby_state_43a183|50|1 349,0,0,0,0,0,0,1,0,0,0,0,1,0,0,351,
scooby_state_43a0cf|41|1 350,0,1,0,0,0,0,0,0,0,0,0,0,0,0,351,
scooby_state_43a17d|53|1 350,0,0,0,0,0,0,0,0,0,0,1,0,0,0,351,
scooby_state_43972d|0|0 351,0,0,0,0,0,0,0,0,0,0,0,0,0,0,351,
scooby_state_43a158|56|1 351,0,0,0,0,0,0,0,0,0,0,0,0,0,0,351,
scooby_state_43a0cf|49|1 351,0,0,0,0,0,0,0,0,0,0,0,0,0,0,351,
scooby_state_43a17d|17|1 349,0,0,0,0,0,1,0,0,0,0,1,0,0,0,351,
scooby_state_439ed0|23|1 351,0,0,0,0,0,0,0,0,0,0,0,0,0,0,351,
scooby_state_43a183|5|1 351,0,0,0,0,0,0,0,0,0,0,0,0,0,0,351,
scooby_state_439ed4|40|1 350,0,0,1,0,0,0,0,0,0,0,0,0,0,0,351,
scooby_state_43a0ef|28|1 351,0,0,0,0,0,0,0,0,0,0,0,0,0,0,351,
scooby_state_43a183|53|1 351,0,0,0,0,0,0,0,0,0,0,0,0,0,0,351,
scooby_state_43a0d9|7|1 351,0,0,0,0,0,0,0,0,0,0,0,0,0,0,351,
scooby_state_439ed4|4|1 351,0,0,0,0,0,0,0,0,0,0,0,0,0,0,351,
scooby_state_43a146|18|1 350,0,0,0,0,0,0,0,0,0,0,1,0,0,0,351,
scooby_state_43a158|15|1 351,0,0,0,0,0,0,0,0,0,0,0,0,0,0,351,
scooby_state_439ed0|52|1 350,0,0,0,0,0,0,0,0,0,0,0,0,1,0,351,
scooby_state_439ed0|26|1 350,0,0,0,0,0,1,0,0,0,0,0,0,0,0,351,
scooby_state_439ed0|57|1 351,0,0,0,0,0,0,0,0,0,0,0,0,0,0,351,
scooby_state_439ed0|56|1 351,0,0,0,0,0,0,0,0,0,0,0,0,0,0,351,
scooby_state_43a17d|21|1 350,0,0,0,0,0,0,0,0,0,0,0,0,1,0,351,
scooby_state_43a0d5|57|1 350,0,0,0,0,0,1,0,0,0,0,0,0,0,0,351,
scooby_state_43a0d5|55|1 351,0,0,0,0,0,0,0,0,0,0,0,0,0,0,351,
scooby_state_43a17d|55|1 351,0,0,0,0,0,0,0,0,0,0,0,0,0,0,351,
scooby_state_43a0c0|19|1 351,0,0,0,0,0,0,0,0,0,0,0,0,0,0,351,
scooby_state_43a103|17|1 350,0,0,0,0,1,0,0,0,0,0,0,0,0,0,351,
scooby_state_43a103|11|1 350,1,0,0,0,0,0,0,0,0,0,0,0,0,0,351,
scooby_state_43a0fd|52|1 351,0,0,0,0,0,0,0,0,0,0,0,0,0,0,351,
scooby_state_43a0d5|31|1 350,0,0,0,0,0,0,0,0,0,0,1,0,0,0,351,
scooby_state_43a0fd|44|1 350,0,1,0,0,0,0,0,0,0,0,0,0,0,0,351,
scooby_state_43a103|30|1 349,0,0,0,0,0,0,0,0,0,0,1,0,1,0,351,
scooby_state_43a183|14|1 351,0,0,0,0,0,0,0,0,0,0,0,0,0,0,351,
scooby_state_43a0c0|2|1 351,0,0,0,0,0,0,0,0,0,0,0,0,0,0,351,
scooby_state_43a17d|47|1 350,0,0,0,0,1,0,0,0,0,0,0,0,0,0,351,
scooby_state_43a146|13|1 351,0,0,0,0,0,0,0,0,0,0,0,0,0,0,351,
scooby_state_43a17d|1|1 351,0,0,0,0,0,0,0,0,0,0,0,0,0,0,351,
scooby_state_439ed0|53|1 351,0,0,0,0,0,0,0,0,0,0,0,0,0,0,351,
scooby_state_43a0c0|25|1 351,0,0,0,0,0,0,0,0,0,0,0,0,0,0,351,
scooby_state_43a0d5|61|1 350,0,0,0,0,1,0,0,0,0,0,0,0,0,0,351,
scooby_state_43a158|7|1 348,0,2,0,1,0,0,0,0,0,0,0,0,0,0,351,
scooby_state_43a103|5|1 349,0,0,0,0,1,0,1,0,0,0,0,0,0,0,351,
scooby_state_43a103|2|1 350,0,0,0,0,0,1,0,0,0,0,0,0,0,0,351,
scooby_state_439ed0|22|1 350,0,0,0,1,0,0,0,0,0,0,0,0,0,0,351,
scooby_state_43a146|60|1 350,0,0,0,1,0,0,0,0,0,0,0,0,0,0,351,
scooby_state_439ed4|38|1 350,0,0,0,0,0,0,0,1,0,0,0,0,0,0,351,
scooby_state_43a146|0|0 351,0,0,0,0,0,0,0,0,0,0,0,0,0,0,351,
scooby_state_43a146|50|1 349,0,0,0,2,0,0,0,0,0,0,0,0,0,0,351,
scooby_state_43a0c0|13|1 350,0,0,0,0,0,0,1,0,0,0,0,0,0,0,351,
scooby_state_43a158|10|1 349,0,0,0,0,1,0,0,0,0,0,0,0,0,1,351,
scooby_state_43a0cf|55|1 349,0,0,1,0,0,0,0,1,0,0,0,0,0,0,351,
scooby_state_43a0d5|32|1 351,0,0,0,0,0,0,0,0,0,0,0,0,0,0,351,
scooby_state_43a103|9|1 351,0,0,0,0,0,0,0,0,0,0,0,0,0,0,351,
scooby_state_43a17d|32|1 351,0,0,0,0,0,0,0,0,0,0,0,0,0,0,351,
scooby_state_43a183|2|1 351,0,0,0,0,0,0,0,0,0,0,0,0,0,0,351,
scooby_state_43a0ef|24|1 351,0,0,0,0,0,0,0,0,0,0,0,0,0,0,351,
scooby_state_43a0d9|10|1 351,0,0,0,0,0,0,0,0,0,0,0,0,0,0,351,
scooby_state_43a183|41|1 349,0,0,1,0,0,0,1,0,0,0,0,0,0,0,351,
scooby_state_43a0d9|21|1 348,0,0,0,0,1,0,1,0,0,0,1,0,0,0,351,
scooby_state_43a0fd|43|1 351,0,0,0,0,0,0,0,0,0,0,0,0,0,0,351,
scooby_state_43a103|20|1 350,0,0,1,0,0,0,0,0,0,0,0,0,0,0,351,
scooby_state_43a0ef|13|1 349,0,0,0,0,1,0,0,0,0,1,0,0,0,0,351,
scooby_state_43a146|19|1 350,0,0,0,0,0,0,0,0,1,0,0,0,0,0,351,
scooby_state_43a158|62|1 350,0,0,0,0,0,0,0,0,0,0,0,0,1,0,351,
scooby_state_43a0d5|33|1 351,0,0,0,0,0,0,0,0,0,0,0,0,0,0,351,
scooby_state_43a17d|43|1 351,0,0,0,0,0,0,0,0,0,0,0,0,0,0,351,
scooby_state_43a103|10|1 351,0,0,0,0,0,0,0,0,0,0,0,0,0,0,351,
scooby_state_43a158|0|-63 350,1,0,0,0,0,0,0,0,0,0,0,0,0,0,351,
scooby_state_43a0d5|43|1 350,0,0,0,0,0,0,0,0,0,1,0,0,0,0,351,
scooby_state_43a0d5|34|1 351,0,0,0,0,0,0,0,0,0,0,0,0,0,0,351,
scooby_state_43a183|54|1 351,0,0,0,0,0,0,0,0,0,0,0,0,0,0,351,
scooby_state_43a0d9|12|1 351,0,0,0,0,0,0,0,0,0,0,0,0,0,0,351,
scooby_state_43a0fd|45|1 351,0,0,0,0,0,0,0,0,0,0,0,0,0,0,351,
scooby_state_43a183|61|1 351,0,0,0,0,0,0,0,0,0,0,0,0,0,0,351,
scooby_state_43a0ef|15|1 351,0,0,0,0,0,0,0,0,0,0,0,0,0,0,351,
scooby_state_43a0c0|24|1 351,0,0,0,0,0,0,0,0,0,0,0,0,0,0,351,
scooby_state_43a0c0|0|0 350,0,0,0,0,0,1,0,0,0,0,0,0,0,0,351,
scooby_state_43a0c0|16|1 350,0,0,0,0,0,0,0,0,0,0,0,0,0,1,351,
scooby_state_43a158|1|1 350,0,0,0,0,0,0,0,0,0,0,1,0,0,0,351,
scooby_state_43a0fd|41|1 350,0,0,0,0,0,0,0,0,0,1,0,0,0,0,351,
scooby_state_43a183|43|1 351,0,0,0,0,0,0,0,0,0,0,0,0,0,0,351,
scooby_state_43a146|61|1 351,0,0,0,0,0,0,0,0,0,0,0,0,0,0,351,
scooby_state_43a146|20|1 350,0,0,0,0,0,0,0,0,1,0,0,0,0,0,351,
scooby_state_43a17d|6|1 351,0,0,0,0,0,0,0,0,0,0,0,0,0,0,351,
scooby_state_43a17d|30|1 350,0,0,0,0,1,0,0,0,0,0,0,0,0,0,351,
scooby_state_43a17d|45|1 349,0,0,1,0,0,0,0,0,0,0,0,1,0,0,351,
scooby_state_43a103|7|1 351,0,0,0,0,0,0,0,0,0,0,0,0,0,0,351,
scooby_state_43a103|22|1 351,0,0,0,0,0,0,0,0,0,0,0,0,0,0,351,
scooby_state_43a146|12|1 351,0,0,0,0,0,0,0,0,0,0,0,0,0,0,351,
scooby_state_43a0d5|45|1 351,0,0,0,0,0,0,0,0,0,0,0,0,0,0,351,
scooby_state_43a183|28|1 351,0,0,0,0,0,0,0,0,0,0,0,0,0,0,351,
scooby_state_439ed0|48|1 350,0,0,0,1,0,0,0,0,0,0,0,0,0,0,351,
scooby_state_43a0d9|8|1 349,0,1,0,0,0,0,0,0,1,0,0,0,0,0,351,
scooby_state_43a0c0|26|1 351,0,0,0,0,0,0,0,0,0,0,0,0,0,0,351,
scooby_state_43a146|17|1 351,0,0,0,0,0,0,0,0,0,0,0,0,0,0,351,
scooby_state_43a0d5|35|1 349,0,0,0,0,0,0,0,0,0,1,0,0,0,1,351,
scooby_state_43a17d|8|1 351,0,0,0,0,0,0,0,0,0,0,0,0,0,0,351,
scooby_state_43a0d5|44|1 351,0,0,0,0,0,0,0,0,0,0,0,0,0,0,351,
scooby_state_43a0ef|11|1 348,0,0,0,0,0,0,0,1,1,0,0,0,0,1,351,
scooby_state_43a158|11|1 351,0,0,0,0,0,0,0,0,0,0,0,0,0,0,351,
scooby_state_43a0cf|56|1 350,0,0,0,0,0,0,0,0,0,0,0,1,0,0,351,
scooby_state_43a0c0|12|1 351,0,0,0,0,0,0,0,0,0,0,0,0,0,0,351,
scooby_state_43a0fd|0|-63 351,0,0,0,0,0,0,0,0,0,0,0,0,0,0,351,
scooby_state_43a0d9|22|1 351,0,0,0,0,0,0,0,0,0,0,0,0,0,0,351,
scooby_state_43a0cf|42|1 351,0,0,0,0,0,0,0,0,0,0,0,0,0,0,351,
scooby_state_43a103|21|1 351,0,0,0,0,0,0,0,0,0,0,0,0,0,0,351,
scooby_state_43a17d|44|1 351,0,0,0,0,0,0,0,0,0,0,0,0,0,0,351,
scooby_state_43a158|61|1 350,0,0,0,1,0,0,0,0,0,0,0,0,0,0,351,
scooby_state_43a146|62|1 350,0,0,0,0,1,0,0,0,0,0,0,0,0,0,351,
scooby_state_43a0ef|12|1 351,0,0,0,0,0,0,0,0,0,0,0,0,0,0,351,
scooby_state_43a0cf|43|1 349,0,0,0,0,0,0,1,0,0,0,0,1,0,0,351,
scooby_state_43a17d|40|1 350,0,1,0,0,0,0,0,0,0,0,0,0,0,0,351,
scooby_state_43a0c0|34|1 350,0,0,1,0,0,0,0,0,0,0,0,0,0,0,351,
scooby_state_43a0ef|23|1 348,1,0,0,1,0,1,0,0,0,0,0,0,0,0,351,
scooby_state_43a0cf|50|1 351,0,0,0,0,0,0,0,0,0,0,0,0,0,0,351,
scooby_state_43a158|5|1 349,0,0,0,0,0,0,1,0,0,0,0,0,0,1,351,
scooby_state_43a0c0|20|1 350,0,0,0,0,0,0,0,0,0,0,0,1,0,0,351,
scooby_state_43a17d|39|1 350,0,0,0,0,0,0,0,0,0,0,1,0,0,0,351,
scooby_state_43a0d9|20|1 351,0,0,0,0,0,0,0,0,0,0,0,0,0,0,351,
scooby_state_43a183|40|1 351,0,0,0,0,0,0,0,0,0,0,0,0,0,0,351,
scooby_state_43a0d5|42|1 351,0,0,0,0,0,0,0,0,0,0,0,0,0,0,351,
scooby_state_43a103|16|1 350,0,0,0,0,0,0,0,1,0,0,0,0,0,0,351,
scooby_state_43a0d9|17|1 350,0,0,0,0,0,0,0,0,1,0,0,0,0,0,351,
scooby_state_43a17d|42|1 349,0,0,0,1,0,0,0,0,0,0,1,0,0,0,351,
scooby_state_43a183|37|1 350,0,0,0,0,0,1,0,0,0,0,0,0,0,0,351,
scooby_state_43a0c0|23|1 351,0,0,0,0,0,0,0,0,0,0,0,0,0,0,351,
scooby_state_43a0cf|53|1 351,0,0,0,0,0,0,0,0,0,0,0,0,0,0,351,
scooby_state_43a183|22|1 351,0,0,0,0,0,0,0,0,0,0,0,0,0,0,351,
scooby_state_43a0ef|26|1 351,0,0,0,0,0,0,0,0,0,0,0,0,0,0,351,
scooby_state_43a0cf|63|1 350,0,0,0,0,0,0,0,0,0,1,0,0,0,0,351,
scooby_state_43a0ef|20|1 351,0,0,0,0,0,0,0,0,0,0,0,0,0,0,351,
scooby_state_43a0cf|51|1 351,0,0,0,0,0,0,0,0,0,0,0,0,0,0,351,
scooby_state_43a0c0|21|1 350,0,1,0,0,0,0,0,0,0,0,0,0,0,0,351,
scooby_state_43a0d5|40|1 350,0,0,0,0,0,0,1,0,0,0,0,0,0,0,351,
scooby_state_43a0ef|32|1 350,0,0,0,0,0,1,0,0,0,0,0,0,0,0,351,
scooby_state_43a103|18|1 351,0,0,0,0,0,0,0,0,0,0,0,0,0,0,351,
scooby_state_43a0d9|18|1 351,0,0,0,0,0,0,0,0,0,0,0,0,0,0,351,
scooby_state_43a0fd|51|1 350,0,0,0,0,0,1,0,0,0,0,0,0,0,0,351,
scooby_state_43a17d|41|1 351,0,0,0,0,0,0,0,0,0,0,0,0,0,0,351,
scooby_state_43a0ef|21|1 351,0,0,0,0,0,0,0,0,0,0,0,0,0,0,351,
scooby_state_43a146|8|1 350,0,1,0,0,0,0,0,0,0,0,0,0,0,0,351,
scooby_state_43a0cf|52|1 350,1,0,0,0,0,0,0,0,0,0,0,0,0,0,351,
scooby_state_43a0c0|22|1 351,0,0,0,0,0,0,0,0,0,0,0,0,0,0,351,
scooby_state_43a103|19|1 351,0,0,0,0,0,0,0,0,0,0,0,0,0,0,351,
scooby_state_439ed0|6|1 350,0,0,0,1,0,0,0,0,0,0,0,0,0,0,351,
scooby_state_43a146|2|1 351,0,0,0,0,0,0,0,0,0,0,0,0,0,0,351,
scooby_state_43a0c0|5|1 348,1,0,0,0,0,0,1,0,1,0,0,0,0,0,351,
scooby_state_43a158|52|1 351,0,0,0,0,0,0,0,0,0,0,0,0,0,0,351,
scooby_state_43a103|12|1 350,0,0,0,0,0,0,0,1,0,0,0,0,0,0,351,
scooby_state_43a0d9|13|1 350,0,0,0,0,1,0,0,0,0,0,0,0,0,0,351,
scooby_state_43a0fd|46|1 351,0,0,0,0,0,0,0,0,0,0,0,0,0,0,351,
scooby_state_43a183|33|1 351,0,0,0,0,0,0,0,0,0,0,0,0,0,0,351,
scooby_state_43a103|13|1 350,0,0,0,0,0,0,1,0,0,0,0,0,0,0,351,
scooby_state_43a17d|36|1 351,0,0,0,0,0,0,0,0,0,0,0,0,0,0,351,
scooby_state_43a146|3|1 351,0,0,0,0,0,0,0,0,0,0,0,0,0,0,351,
scooby_state_43a183|34|1 350,0,0,1,0,0,0,0,0,0,0,0,0,0,0,351,
scooby_state_43a0fd|47|1 351,0,0,0,0,0,0,0,0,0,0,0,0,0,0,351,
scooby_state_43a0cf|48|1 350,0,0,0,0,1,0,0,0,0,0,0,0,0,0,351,
scooby_state_43a0c0|18|1 349,0,0,0,0,0,0,0,0,0,0,0,0,2,0,351,
scooby_state_43a0d9|23|1 350,0,0,0,0,0,0,0,0,0,1,0,0,0,0,351,
scooby_state_43a158|3|1 351,0,0,0,0,0,0,0,0,0,0,0,0,0,0,351,
scooby_state_43a146|4|1 351,0,0,0,0,0,0,0,0,0,0,0,0,0,0,351,
scooby_state_43a17d|37|1 350,0,0,0,0,0,0,0,0,0,0,0,0,1,0,351,
scooby_state_43a0d9|16|1 350,0,0,0,0,0,0,0,0,0,1,0,0,0,0,351,
scooby_state_43a103|14|1 351,0,0,0,0,0,0,0,0,0,0,0,0,0,0,351,
scooby_state_43a0fd|48|1 348,0,0,1,0,0,1,0,1,0,0,0,0,0,0,351,
scooby_state_43a183|35|1 351,0,0,0,0,0,0,0,0,0,0,0,0,0,0,351,
scooby_state_43a0d5|41|1 351,0,0,0,0,0,0,0,0,0,0,0,0,0,0,351,
scooby_state_43a0ef|18|1 351,0,0,0,0,0,0,0,0,0,0,0,0,0,0,351,
scooby_state_43a158|4|1 350,0,0,0,0,0,0,0,1,0,0,0,0,0,0,351,
scooby_state_43a17d|38|1 350,0,0,0,0,0,0,0,0,0,1,0,0,0,0,351,
scooby_state_43a183|36|1 351,0,0,0,0,0,0,0,0,0,0,0,0,0,0,351,
scooby_state_43a0fd|49|1 350,0,0,0,0,0,0,0,0,0,0,0,1,0,0,351,
scooby_state_43a0ef|19|1 350,0,0,0,0,0,0,0,1,0,0,0,0,0,0,351,
scooby_state_43a158|9|1 350,0,0,0,0,0,1,0,0,0,0,0,0,0,0,351,
scooby_state_43a0fd|34|1 350,0,0,1,0,0,0,0,0,0,0,0,0,0,0,351,
scooby_state_43a0cf|31|1 350,0,0,0,0,0,0,0,0,0,0,1,0,0,0,351,
scooby_state_43a0c0|1|1 350,0,0,0,0,0,0,1,0,0,0,0,0,0,0,351,
scooby_state_43a158|50|1 351,0,0,0,0,0,0,0,0,0,0,0,0,0,0,351,
scooby_state_43a0ef|30|1 350,0,1,0,0,0,0,0,0,0,0,0,0,0,0,351,
scooby_state_43a17d|20|1 349,0,0,0,0,0,0,0,1,1,0,0,0,0,0,351,
scooby_state_43a0ef|1|1 349,1,0,0,0,0,1,0,0,0,0,0,0,0,0,351,
scooby_state_43a0ef|17|1 351,0,0,0,0,0,0,0,0,0,0,0,0,0,0,351,
scooby_state_43a0d9|27|1 351,0,0,0,0,0,0,0,0,0,0,0,0,0,0,351,
scooby_state_43a103|62|1 351,0,0,0,0,0,0,0,0,0,0,0,0,0,0,351,
scooby_state_43a0d5|21|1 351,0,0,0,0,0,0,0,0,0,0,0,0,0,0,351,
scooby_state_43a146|16|1 350,0,0,0,0,0,0,0,0,0,0,0,0,0,1,351,
scooby_state_43a146|52|1 351,0,0,0,0,0,0,0,0,0,0,0,0,0,0,351,
scooby_state_43a183|19|1 351,0,0,0,0,0,0,0,0,0,0,0,0,0,0,351,
scooby_state_43a0d9|63|1 351,0,0,0,0,0,0,0,0,0,0,0,0,0,0,351,
scooby_state_43a103|26|1 350,0,0,0,0,0,1,0,0,0,0,0,0,0,0,351,
scooby_state_439ed0|1|1 351,0,0,0,0,0,0,0,0,0,0,0,0,0,0,351,
scooby_state_43a0cf|60|1 350,0,0,0,0,0,0,0,0,0,0,0,0,1,0,351,
scooby_state_43a0fd|32|1 350,0,0,0,0,0,0,0,0,0,0,1,0,0,0,351,
scooby_state_43a0ef|2|1 350,0,0,0,0,0,0,0,0,1,0,0,0,0,0,351,
scooby_state_43a0cf|33|1 349,0,0,0,0,0,0,0,1,0,0,0,0,0,1,351,
scooby_state_43a146|53|1 350,0,0,1,0,0,0,0,0,0,0,0,0,0,0,351,
scooby_state_43a0d9|0|0 351,0,0,0,0,0,0,0,0,0,0,0,0,0,0,351,
scooby_state_43a0fd|33|1 351,0,0,0,0,0,0,0,0,0,0,0,0,0,0,351,
scooby_state_43a183|20|1 350,0,0,0,0,0,0,0,0,0,0,1,0,0,0,351,
scooby_state_43a0cf|34|1 351,0,0,0,0,0,0,0,0,0,0,0,0,0,0,351,
scooby_state_43a0d5|9|1 351,0,0,0,0,0,0,0,0,0,0,0,0,0,0,351,
scooby_state_43a158|53|1 351,0,0,0,0,0,0,0,0,0,0,0,0,0,0,351,
scooby_state_43a0c0|4|1 350,0,0,0,0,0,0,0,0,0,0,1,0,0,0,351,
scooby_state_43a0fd|59|1 351,0,0,0,0,0,0,0,0,0,0,0,0,0,0,351,
scooby_state_43a0ef|34|1 351,0,0,0,0,0,0,0,0,0,0,0,0,0,0,351,
scooby_state_43a17d|23|1 350,0,0,0,0,1,0,0,0,0,0,0,0,0,0,351,
scooby_state_439ed0|46|1 350,0,0,0,0,0,0,1,0,0,0,0,0,0,0,351,
scooby_state_43a158|2|1 350,0,0,0,0,0,0,0,0,0,1,0,0,0,0,351,
scooby_state_43a0fd|62|1 350,0,0,0,0,0,0,0,1,0,0,0,0,0,0,351,
scooby_state_43a183|42|1 350,0,0,0,0,0,0,0,0,0,0,0,0,0,1,351,
scooby_state_439ed4|19|1 350,0,0,0,0,0,0,0,0,0,0,0,0,0,1,351,
scooby_state_43a146|58|1 349,0,0,0,0,0,0,0,1,0,0,1,0,0,0,351,
scooby_state_439ed0|36|1 351,0,0,0,0,0,0,0,0,0,0,0,0,0,0,351,
scooby_state_43a183|49|1 350,0,0,0,0,0,1,0,0,0,0,0,0,0,0,351,
scooby_state_439ed0|41|1 351,0,0,0,0,0,0,0,0,0,0,0,0,0,0,351,
scooby_state_43a0d9|29|1 351,0,0,0,0,0,0,0,0,0,0,0,0,0,0,351,
scooby_state_439ed4|51|1 350,0,0,0,1,0,0,0,0,0,0,0,0,0,0,351,
scooby_state_43a0cf|38|1 348,0,0,0,0,0,0,1,0,0,0,1,0,1,0,351,
scooby_state_43a17d|51|1 351,0,0,0,0,0,0,0,0,0,0,0,0,0,0,351,
scooby_state_439ed0|42|1 351,0,0,0,0,0,0,0,0,0,0,0,0,0,0,351,
scooby_state_439ed0|45|1 350,1,0,0,0,0,0,0,0,0,0,0,0,0,0,351,
scooby_state_43a103|28|1 351,0,0,0,0,0,0,0,0,0,0,0,0,0,0,351,
scooby_state_43a103|0|-63 350,0,0,0,0,0,0,0,0,0,0,0,0,0,1,351,
scooby_state_439ed4|56|1 351,0,0,0,0,0,0,0,0,0,0,0,0,0,0,351,
scooby_state_43a0d5|51|1 351,0,0,0,0,0,0,0,0,0,0,0,0,0,0,351,
scooby_state_439ed0|50|1 351,0,0,0,0,0,0,0,0,0,0,0,0,0,0,351,
scooby_state_439ed4|61|1 350,0,0,1,0,0,0,0,0,0,0,0,0,0,0,351,
scooby_state_43a0fd|61|1 350,0,0,0,0,0,1,0,0,0,0,0,0,0,0,351,
scooby_state_439ed4|3|1 351,0,0,0,0,0,0,0,0,0,0,0,0,0,0,351,
scooby_state_43a0c0|15|1 351,0,0,0,0,0,0,0,0,0,0,0,0,0,0,351,
scooby_state_43a0d9|28|1 351,0,0,0,0,0,0,0,0,0,0,0,0,0,0,351,
scooby_state_43a0d5|50|1 350,0,0,0,1,0,0,0,0,0,0,0,0,0,0,351,
scooby_state_439ed0|60|1 350,0,0,0,0,0,0,0,0,0,0,0,1,0,0,351,
scooby_state_43a183|17|1 350,0,0,0,0,0,0,0,0,0,0,0,0,0,1,351,
scooby_state_43a0c0|31|1 350,0,0,0,1,0,0,0,0,0,0,0,0,0,0,351,
scooby_state_439ed0|61|1 351,0,0,0,0,0,0,0,0,0,0,0,0,0,0,351,
scooby_state_439ed0|62|1 351,0,0,0,0,0,0,0,0,0,0,0,0,0,0,351,
scooby_state_43a0d5|49|1 350,0,0,1,0,0,0,0,0,0,0,0,0,0,0,351,
scooby_state_43a158|59|1 351,0,0,0,0,0,0,0,0,0,0,0,0,0,0,351,
scooby_state_43a0fd|38|1 349,0,0,0,0,1,0,0,0,0,0,0,0,0,1,351,
scooby_state_43a0c0|9|1 351,0,0,0,0,0,0,0,0,0,0,0,0,0,0,351,
scooby_state_43a0d5|28|1 351,0,0,0,0,0,0,0,0,0,0,0,0,0,0,351,
scooby_state_43a0d9|25|1 351,0,0,0,0,0,0,0,0,0,0,0,0,0,0,351,
scooby_state_43a0d9|6|1 350,0,0,0,1,0,0,0,0,0,0,0,0,0,0,351,
scooby_state_43a183|48|1 350,0,0,0,0,0,0,0,0,0,1,0,0,0,0,351,
scooby_state_439ed4|27|1 349,0,0,0,0,0,0,0,1,1,0,0,0,0,0,351,
scooby_state_43a183|45|1 351,0,0,0,0,0,0,0,0,0,0,0,0,0,0,351,
scooby_state_43a183|26|1 351,0,0,0,0,0,0,0,0,0,0,0,0,0,0,351,
scooby_state_43a0ef|9|1 351,0,0,0,0,0,0,0,0,0,0,0,0,0,0,351,
scooby_state_43a146|14|1 351,0,0,0,0,0,0,0,0,0,0,0,0,0,0,351,
scooby_state_43a0c0|28|1 351,0,0,0,0,0,0,0,0,0,0,0,0,0,0,351,
scooby_state_43a0cf|40|1 351,0,0,0,0,0,0,0,0,0,0,0,0,0,0,351,
scooby_state_43a0c0|10|1 351,0,0,0,0,0,0,0,0,0,0,0,0,0,0,351,
scooby_state_43a0d9|19|1 350,1,0,0,0,0,0,0,0,0,0,0,0,0,0,351,
scooby_state_43a103|27|1 351,0,0,0,0,0,0,0,0,0,0,0,0,0,0,351,
scooby_state_43a158|13|1 350,0,0,1,0,0,0,0,0,0,0,0,0,0,0,351,
scooby_state_43a17d|29|1 350,1,0,0,0,0,0,0,0,0,0,0,0,0,0,351,
scooby_state_43a103|6|1 350,0,0,0,0,0,0,0,0,0,0,0,1,0,0,351,
scooby_state_43a0ef|27|1 351,0,0,0,0,0,0,0,0,0,0,0,0,0,0,351,
scooby_state_43a183|27|1 350,0,0,0,0,0,0,0,0,0,0,1,0,0,0,351,
scooby_state_43a0fd|40|1 350,0,0,0,0,0,0,1,0,0,0,0,0,0,0,351,
scooby_state_43a103|23|1 351,0,0,0,0,0,0,0,0,0,0,0,0,0,0,351,
scooby_state_43a0ef|10|1 351,0,0,0,0,0,0,0,0,0,0,0,0,0,0,351,
scooby_state_43a158|60|1 350,0,0,0,1,0,0,0,0,0,0,0,0,0,0,351,
scooby_state_43a17d|46|1 351,0,0,0,0,0,0,0,0,0,0,0,0,0,0,351,
scooby_state_43a0c0|27|1 349,1,0,0,0,0,1,0,0,0,0,0,0,0,0,351,
scooby_state_43a146|10|1 351,0,0,0,0,0,0,0,0,0,0,0,0,0,0,351,
scooby_state_43a0cf|57|1 350,0,0,0,0,0,0,0,0,0,0,0,0,0,1,351,
scooby_state_43a0c0|11|1 351,0,0,0,0,0,0,0,0,0,0,0,0,0,0,351,
scooby_state_43a0d5|30|1 350,0,0,0,0,0,0,0,1,0,0,0,0,0,0,351,
scooby_state_43a0fd|36|1 348,0,0,1,1,0,0,0,0,0,0,0,0,0,1,351,
scooby_state_43a0ef|22|1 350,0,0,0,0,0,1,0,0,0,0,0,0,0,0,351,
scooby_state_43a146|54|1 351,0,0,0,0,0,0,0,0,0,0,0,0,0,0,351,
scooby_state_43a0d9|1|1 351,0,0,0,0,0,0,0,0,0,0,0,0,0,0,351,
scooby_state_43a0cf|35|1 349,0,1,0,0,1,0,0,0,0,0,0,0,0,0,351,
scooby_state_43a183|46|1 349,0,0,0,0,0,0,0,2,0,0,0,0,0,0,351,
scooby_state_43a146|15|1 351,0,0,0,0,0,0,0,0,0,0,0,0,0,0,351,
scooby_state_43a0d5|24|1 350,0,0,0,0,0,0,0,0,0,0,1,0,0,0,351,
scooby_state_43a0d9|2|1 350,0,0,0,0,0,0,0,0,0,0,0,0,1,0,351,
scooby_state_43a0ef|5|1 350,1,0,0,0,0,0,0,0,0,0,0,0,0,0,351,
scooby_state_43a146|56|1 351,0,0,0,0,0,0,0,0,0,0,0,0,0,0,351,
scooby_state_43a17d|48|1 351,0,0,0,0,0,0,0,0,0,0,0,0,0,0,351,
scooby_state_43a0d9|3|1 350,0,0,0,0,1,0,0,0,0,0,0,0,0,0,351,
scooby_state_43a0d5|48|1 351,0,0,0,0,0,0,0,0,0,0,0,0,0,0,351,
scooby_state_43a183|23|1 351,0,0,0,0,0,0,0,0,0,0,0,0,0,0,351,
scooby_state_43a0ef|6|1 351,0,0,0,0,0,0,0,0,0,0,0,0,0,0,351,
scooby_state_439ed4|44|1 350,0,0,0,0,0,0,0,0,0,0,1,0,0,0,351,
scooby_state_43a0c0|7|1 351,0,0,0,0,0,0,0,0,0,0,0,0,0,0,351,
scooby_state_43a146|57|1 351,0,0,0,0,0,0,0,0,0,0,0,0,0,0,351,
scooby_state_43a158|14|1 349,0,0,0,0,0,0,0,1,0,0,0,0,0,1,351,
scooby_state_43a103|3|1 351,0,0,0,0,0,0,0,0,0,0,0,0,0,0,351,
scooby_state_43a0d9|4|1 349,0,0,0,0,0,0,0,0,0,0,0,0,2,0,351,
scooby_state_43a0fd|37|1 350,1,0,0,0,0,0,0,0,0,0,0,0,0,0,351,
scooby_state_43a0ef|7|1 351,0,0,0,0,0,0,0,0,0,0,0,0,0,0,351,
scooby_state_43a158|57|1 351,0,0,0,0,0,0,0,0,0,0,0,0,0,0,351,
scooby_state_43a0c0|8|1 350,0,0,0,0,0,1,0,0,0,0,0,0,0,0,351,
scooby_state_43a0cf|59|1 351,0,0,0,0,0,0,0,0,0,0,0,0,0,0,351,
scooby_state_43a17d|27|1 351,0,0,0,0,0,0,0,0,0,0,0,0,0,0,351,
scooby_state_43a0ef|31|1 351,0,0,0,0,0,0,0,0,0,0,0,0,0,0,351,
scooby_state_43a0d5|27|1 351,0,0,0,0,0,0,0,0,0,0,0,0,0,0,351,
scooby_state_43a0fd|58|1 350,0,0,0,0,0,0,0,0,1,0,0,0,0,0,351,
scooby_state_43a183|25|1 351,0,0,0,0,0,0,0,0,0,0,0,0,0,0,351,
scooby_state_43a183|57|1 351,0,0,0,0,0,0,0,0,0,0,0,0,0,0,351,
scooby_state_43a0d9|62|1 350,0,0,1,0,0,0,0,0,0,0,0,0,0,0,351,
scooby_state_43a0d9|26|1 350,0,0,0,1,0,0,0,0,0,0,0,0,0,0,351,
scooby_state_439ed4|39|1 350,0,0,0,0,0,0,0,0,0,0,0,1,0,0,351,
scooby_state_43a17d|14|1 350,0,1,0,0,0,0,0,0,0,0,0,0,0,0,351,
scooby_state_43a17d|58|1 350,0,0,0,0,0,0,1,0,0,0,0,0,0,0,351,
scooby_state_43a103|29|1 350,0,0,0,0,0,1,0,0,0,0,0,0,0,0,351,
scooby_state_43a0fd|53|1 351,0,0,0,0,0,0,0,0,0,0,0,0,0,0,351,
scooby_state_43a183|11|1 349,0,1,0,0,1,0,0,0,0,0,0,0,0,0,351,
scooby_state_439ed0|49|1 350,0,1,0,0,0,0,0,0,0,0,0,0,0,0,351,
scooby_state_43a0d5|19|1 351,0,0,0,0,0,0,0,0,0,0,0,0,0,0,351,
scooby_state_43a0d9|14|1 349,2,0,0,0,0,0,0,0,0,0,0,0,0,0,351,
scooby_state_43a183|8|1 350,0,0,0,0,0,0,0,0,0,1,0,0,0,0,351,
scooby_state_43a158|20|1 350,0,0,0,0,0,0,0,0,1,0,0,0,0,0,351,
scooby_state_43a183|56|1 351,0,0,0,0,0,0,0,0,0,0,0,0,0,0,351,
scooby_state_43a158|12|1 350,0,0,1,0,0,0,0,0,0,0,0,0,0,0,351,
scooby_state_43a17d|31|1 351,0,0,0,0,0,0,0,0,0,0,0,0,0,0,351,
scooby_state_43a17d|61|1 350,0,0,0,0,0,0,0,0,0,0,0,1,0,0,351,
scooby_state_43a0d5|12|1 351,0,0,0,0,0,0,0,0,0,0,0,0,0,0,351,
scooby_state_43a17d|22|1 351,0,0,0,0,0,0,0,0,0,0,0,0,0,0,351,
scooby_state_43a17d|10|1 348,1,0,0,0,0,0,0,0,0,0,0,1,1,0,351,
scooby_state_43a17d|12|1 349,0,0,0,0,0,0,0,0,0,0,0,0,2,0,351,
scooby_state_43a17d|15|1 351,0,0,0,0,0,0,0,0,0,0,0,0,0,0,351,
scooby_state_43a0d5|18|1 350,0,0,0,0,0,1,0,0,0,0,0,0,0,0,351,
scooby_state_43a158|63|1 351,0,0,0,0,0,0,0,0,0,0,0,0,0,0,351,
scooby_state_43a0d5|4|1 351,0,0,0,0,0,0,0,0,0,0,0,0,0,0,351,
scooby_state_43a0fd|39|1 349,0,0,0,0,0,0,0,0,0,0,1,0,1,0,351,
scooby_state_43a0cf|37|1 351,0,0,0,0,0,0,0,0,0,0,0,0,0,0,351,
scooby_state_43a0d5|15|1 351,0,0,0,0,0,0,0,0,0,0,0,0,0,0,351,
scooby_state_43a146|11|1 351,0,0,0,0,0,0,0,0,0,0,0,0,0,0,351,
scooby_state_43a183|44|1 350,0,0,0,0,0,0,1,0,0,0,0,0,0,0,351,
scooby_state_43a17d|16|1 351,0,0,0,0,0,0,0,0,0,0,0,0,0,0,351,
scooby_state_43a0d9|31|1 350,0,0,0,0,0,0,0,0,1,0,0,0,0,0,351,
scooby_state_43a183|12|1 351,0,0,0,0,0,0,0,0,0,0,0,0,0,0,351,
scooby_state_43a0ef|29|1 350,0,0,0,0,0,0,0,1,0,0,0,0,0,0,351,
scooby_state_43a0cf|39|1 351,0,0,0,0,0,0,0,0,0,0,0,0,0,0,351,
scooby_state_43a146|9|1 351,0,0,0,0,0,0,0,0,0,0,0,0,0,0,351,
scooby_state_43a183|15|1 351,0,0,0,0,0,0,0,0,0,0,0,0,0,0,351,
scooby_state_43a0d5|1|1 350,0,0,0,1,0,0,0,0,0,0,0,0,0,0,351,
scooby_state_43a17d|33|1 351,0,0,0,0,0,0,0,0,0,0,0,0,0,0,351,
scooby_state_43a0cf|30|1 351,0,0,0,0,0,0,0,0,0,0,0,0,0,0,351,
scooby_state_43a0c0|30|1 350,0,0,0,0,0,0,0,0,0,0,0,0,1,0,351,
scooby_state_43a17d|57|1 351,0,0,0,0,0,0,0,0,0,0,0,0,0,0,351,
scooby_state_43a0d5|2|1 350,0,0,0,0,0,0,1,0,0,0,0,0,0,0,351,
scooby_state_43a183|3|1 351,0,0,0,0,0,0,0,0,0,0,0,0,0,0,351,
scooby_state_439ed4|9|1 351,0,0,0,0,0,0,0,0,0,0,0,0,0,0,351,
scooby_state_43a183|62|1 351,0,0,0,0,0,0,0,0,0,0,0,0,0,0,351,
scooby_state_439ed0|59|1 350,0,0,0,1,0,0,0,0,0,0,0,0,0,0,351,
scooby_state_43a0c0|32|1 350,0,0,1,0,0,0,0,0,0,0,0,0,0,0,351,
scooby_state_43a183|52|1 351,0,0,0,0,0,0,0,0,0,0,0,0,0,0,351,
scooby_state_43a0d5|13|1 351,0,0,0,0,0,0,0,0,0,0,0,0,0,0,351,
scooby_state_43a183|63|1 350,0,0,0,0,0,0,0,0,0,1,0,0,0,0,351,
scooby_state_43a0fd|30|1 349,0,0,0,0,1,0,0,0,1,0,0,0,0,0,351,
scooby_state_43a0fd|31|1 351,0,0,0,0,0,0,0,0,0,0,0,0,0,0,351,
scooby_state_43a17d|19|1 350,0,0,0,0,0,0,0,0,1,0,0,0,0,0,351,
scooby_state_43a17d|2|1 350,0,0,0,0,0,0,0,1,0,0,0,0,0,0,351,
scooby_state_43a0d5|3|1 350,0,1,0,0,0,0,0,0,0,0,0,0,0,0,351,
scooby_state_43a146|51|1 350,1,0,0,0,0,0,0,0,0,0,0,0,0,0,351,
scooby_state_43a183|29|1 348,0,0,1,1,0,0,0,0,0,1,0,0,0,0,351,
scooby_state_43a0c0|33|1 351,0,0,0,0,0,0,0,0,0,0,0,0,0,0,351,
scooby_state_43a17d|3|1 349,1,0,0,0,0,0,0,0,0,0,0,1,0,0,351,
scooby_state_43a17d|11|1 351,0,0,0,0,0,0,0,0,0,0,0,0,0,0,351,
scooby_state_43a0d5|38|1 351,0,0,0,0,0,0,0,0,0,0,0,0,0,0,351,
scooby_state_43a0d5|5|1 350,0,0,0,0,0,0,0,0,0,0,0,0,0,1,351,
scooby_state_43a0d5|14|1 350,0,0,0,0,0,0,0,0,1,0,0,0,0,0,351,
scooby_state_43a0cf|47|1 351,0,0,0,0,0,0,0,0,0,0,0,0,0,0,351,
scooby_state_43a183|59|1 351,0,0,0,0,0,0,0,0,0,0,0,0,0,0,351,
scooby_state_43a183|32|1 351,0,0,0,0,0,0,0,0,0,0,0,0,0,0,351,
scooby_state_439ed4|16|1 349,0,0,0,0,0,0,0,0,0,0,1,0,1,0,351,
scooby_state_43a17d|35|1 350,0,0,0,0,0,0,0,0,0,0,0,1,0,0,351,
scooby_state_43a17d|50|1 350,1,0,0,0,0,0,0,0,0,0,0,0,0,0,351,
scooby_state_43a0fd|57|1 351,0,0,0,0,0,0,0,0,0,0,0,0,0,0,351,
scooby_state_43a0d5|62|1 351,0,0,0,0,0,0,0,0,0,0,0,0,0,0,351,
scooby_state_43a0d5|47|1 351,0,0,0,0,0,0,0,0,0,0,0,0,0,0,351,
scooby_state_43a0fd|35|1 351,0,0,0,0,0,0,0,0,0,0,0,0,0,0,351,
scooby_state_43a17d|63|1 351,0,0,0,0,0,0,0,0,0,0,0,0,0,0,351,
scooby_state_43a0d5|54|1 351,0,0,0,0,0,0,0,0,0,0,0,0,0,0,351,
scooby_state_43a0d5|10|1 351,0,0,0,0,0,0,0,0,0,0,0,0,0,0,351,
scooby_state_43a183|47|1 351,0,0,0,0,0,0,0,0,0,0,0,0,0,0,351,
scooby_state_43a183|21|1 350,0,0,0,0,0,0,1,0,0,0,0,0,0,0,351,
scooby_state_439ed0|29|1 351,0,0,0,0,0,0,0,0,0,0,0,0,0,0,351,
scooby_state_43a0d5|8|1 349,0,0,0,0,0,0,0,0,1,1,0,0,0,0,351,
scooby_state_43a0d5|7|1 350,0,0,0,0,0,0,0,0,0,0,0,0,0,1,351,
scooby_state_43a17d|26|1 351,0,0,0,0,0,0,0,0,0,0,0,0,0,0,351,
scooby_state_439ed4|58|1 349,0,1,1,0,0,0,0,0,0,0,0,0,0,0,351,
scooby_state_43a17d|52|1 348,0,1,0,0,0,0,0,0,1,0,0,1,0,0,351,
scooby_state_43a0d9|61|1 349,0,0,0,0,1,0,0,0,0,0,0,1,0,0,351,
scooby_state_43a0d5|58|1 350,0,1,0,0,0,0,0,0,0,0,0,0,0,0,351,
scooby_state_43a183|16|1 351,0,0,0,0,0,0,0,0,0,0,0,0,0,0,351,
scooby_state_43a17d|28|1 351,0,0,0,0,0,0,0,0,0,0,0,0,0,0,351,
scooby_state_43a183|38|1 351,0,0,0,0,0,0,0,0,0,0,0,0,0,0,351,
scooby_state_43a0d9|15|1 351,0,0,0,0,0,0,0,0,0,0,0,0,0,0,351,
scooby_state_43a0ef|63|1 351,0,0,0,0,0,0,0,0,0,0,0,0,0,0,351,
[...]
scooby_state_43a0d5|39|0 3,0,0,0,0,0,0,0,0,0,0,0,0,0,0,3,
scooby_state_43a17d|37|0 3,0,0,0,0,0,0,0,0,0,0,0,0,0,0,3,
scooby_state_43a0d5|27|0 3,0,0,0,0,0,0,0,0,0,0,0,0,0,0,3,
scooby_state_43a0d5|37|0 3,0,0,0,0,0,0,0,0,0,0,0,0,0,0,3,
scooby_state_43a183|0|-30 3,0,0,0,0,0,0,0,0,0,0,0,0,0,0,3,
scooby_state_439ed0|19|0 3,0,0,0,0,0,0,0,0,0,0,0,0,0,0,3,
scooby_state_439ed0|28|0 3,0,0,0,0,0,0,0,0,0,0,0,0,0,0,3,
scooby_state_439753|45|0 3,0,0,0,0,0,0,0,0,0,0,0,0,0,0,3,
scooby_state_43a183|52|-11 3,0,0,0,0,0,0,0,0,0,0,0,0,0,0,3,
scooby_state_439753|21|0 3,0,0,0,0,0,0,0,0,0,0,0,0,0,0,3,
scooby_state_43a0d5|19|0 3,0,0,0,0,0,0,0,0,0,0,0,0,0,0,3,
scooby_state_43a183|0|-25 3,0,0,0,0,0,0,0,0,0,0,0,0,0,0,3,
scooby_state_439ed0|42|0 3,0,0,0,0,0,0,0,0,0,0,0,0,0,0,3,
scooby_state_43972d|6|0 3,0,0,0,0,0,0,0,0,0,0,0,0,0,0,3,
scooby_state_43972d|1|0 3,0,0,0,0,0,0,0,0,0,0,0,0,0,0,3,
scooby_state_43972d|58|0 3,0,0,0,0,0,0,0,0,0,0,0,0,0,0,3,
scooby_state_439ed0|33|0 3,0,0,0,0,0,0,0,0,0,0,0,0,0,0,3,
scooby_state_439720|51|0 3,0,0,0,0,0,0,0,0,0,0,0,0,0,0,3,
scooby_state_439720|44|0 3,0,0,0,0,0,0,0,0,0,0,0,0,0,0,3,
scooby_state_43a183|0|-46 3,0,0,0,0,0,0,0,0,0,0,0,0,0,0,3,
scooby_state_43a183|0|-49 3,0,0,0,0,0,0,0,0,0,0,0,0,0,0,3,
scooby_state_43a183|28|-35 3,0,0,0,0,0,0,0,0,0,0,0,0,0,0,3,
scooby_state_439753|28|0 3,0,0,0,0,0,0,0,0,0,0,0,0,0,0,3,
scooby_state_43a17d|39|0 3,0,0,0,0,0,0,0,0,0,0,0,0,0,0,3,
scooby_state_43972d|27|0 3,0,0,0,0,0,0,0,0,0,0,0,0,0,0,3,
scooby_state_439ed0|39|0 3,0,0,0,0,0,0,0,0,0,0,0,0,0,0,3,
scooby_state_439720|47|0 3,0,0,0,0,0,0,0,0,0,0,0,0,0,0,3,
scooby_state_43a183|0|-51 3,0,0,0,0,0,0,0,0,0,0,0,0,0,0,3,
scooby_state_439720|63|0 3,0,0,0,0,0,0,0,0,0,0,0,0,0,0,3,
scooby_state_43a0d5|48|0 3,0,0,0,0,0,0,0,0,0,0,0,0,0,0,3,
scooby_state_43a183|0|-33 3,0,0,0,0,0,0,0,0,0,0,0,0,0,0,3,
scooby_state_439720|62|0 3,0,0,0,0,0,0,0,0,0,0,0,0,0,0,3,
scooby_state_439753|37|0 3,0,0,0,0,0,0,0,0,0,0,0,0,0,0,3,
scooby_state_43a17d|43|0 3,0,0,0,0,0,0,0,0,0,0,0,0,0,0,3,
scooby_state_439753|36|0 3,0,0,0,0,0,0,0,0,0,0,0,0,0,0,3,
scooby_state_43972d|10|0 3,0,0,0,0,0,0,0,0,0,0,0,0,0,0,3,
scooby_state_439720|60|0 3,0,0,0,0,0,0,0,0,0,0,0,0,0,0,3,
scooby_state_43a17d|51|0 3,0,0,0,0,0,0,0,0,0,0,0,0,0,0,3,
scooby_state_43a17d|24|0 3,0,0,0,0,0,0,0,0,0,0,0,0,0,0,3,
scooby_state_439753|34|0 3,0,0,0,0,0,0,0,0,0,0,0,0,0,0,3,
scooby_state_43a183|49|-14 3,0,0,0,0,0,0,0,0,0,0,0,0,0,0,3,
scooby_state_439720|56|0 3,0,0,0,0,0,0,0,0,0,0,0,0,0,0,3,
scooby_state_43972d|61|0 3,0,0,0,0,0,0,0,0,0,0,0,0,0,0,3,
scooby_state_43972d|3|0 3,0,0,0,0,0,0,0,0,0,0,0,0,0,0,3,
scooby_state_439753|48|0 3,0,0,0,0,0,0,0,0,0,0,0,0,0,0,3,
scooby_state_439720|53|0 3,0,0,0,0,0,0,0,0,0,0,0,0,0,0,3,
scooby_state_43a3e7|0|-13 2,0,0,0,0,0,0,0,0,0,0,0,0,0,0,2,
scooby_state_43a1c3|7|-2 2,0,0,0,0,0,0,0,0,0,0,0,0,0,0,2,
scooby_state_43a3e7|0|-16 2,0,0,0,0,0,0,0,0,0,0,0,0,0,0,2,
scooby_state_439e34|49|7 2,0,0,0,0,0,0,0,0,0,0,0,0,0,0,2,
scooby_state_439d2a|11|3 2,0,0,0,0,0,0,0,0,0,0,0,0,0,0,2,
scooby_state_43a3e1|13|-50 2,0,0,0,0,0,0,0,0,0,0,0,0,0,0,2,
scooby_state_43a1fb|10|3 2,0,0,0,0,0,0,0,0,0,0,0,0,0,0,2,
scooby_state_439e34|49|10 2,0,0,0,0,0,0,0,0,0,0,0,0,0,0,2,
scooby_state_439e30|16|0 2,0,0,0,0,0,0,0,0,0,0,0,0,0,0,2,
scooby_state_439e30|13|0 2,0,0,0,0,0,0,0,0,0,0,0,0,0,0,2,
scooby_state_439720|45|0 2,0,0,0,0,0,0,0,0,0,0,0,0,0,0,2,
scooby_state_43a3e1|16|-47 2,0,0,0,0,0,0,0,0,0,0,0,0,0,0,2,
scooby_state_439fc0|19|0 2,0,0,0,0,0,0,0,0,0,0,0,0,0,0,2,
scooby_state_439fc5|54|0 2,0,0,0,0,0,0,0,0,0,0,0,0,0,0,2,
scooby_state_43a183|54|0 2,0,0,0,0,0,0,0,0,0,0,0,0,0,0,2,
scooby_state_43a183|57|0 2,0,0,0,0,0,0,0,0,0,0,0,0,0,0,2,
scooby_state_439753|19|0 2,0,0,0,0,0,0,0,0,0,0,0,0,0,0,2,
scooby_state_439db8|3|2 2,0,0,0,0,0,0,0,0,0,0,0,0,0,0,2,
scooby_state_439fc0|16|0 2,0,0,0,0,0,0,0,0,0,0,0,0,0,0,2,
scooby_state_43972d|59|0 2,0,0,0,0,0,0,0,0,0,0,0,0,0,0,2,
scooby_state_439d7a|9|3 2,0,0,0,0,0,0,0,0,0,0,0,0,0,0,2,
scooby_state_439e34|49|6 1,0,0,0,0,0,0,0,0,0,0,0,0,0,0,1,
scooby_state_439e30|14|0 1,0,0,0,0,0,0,0,0,0,0,0,0,0,0,1,
scooby_state_43a3e1|56|1 1,0,0,0,0,0,0,0,0,0,0,0,0,0,0,1,
scooby_state_43a7b8|9|5 1,0,0,0,0,0,0,0,0,0,0,0,0,0,0,1,
scooby_state_439720|28|-24 1,0,0,0,0,0,0,0,0,0,0,0,0,0,0,1,
scooby_state_43a5d8|32|2 0,1,0,0,0,0,0,0,0,0,0,0,0,0,0,1,
scooby_state_439fc5|57|-1 1,0,0,0,0,0,0,0,0,0,0,0,0,0,0,1,
scooby_state_439a80|42|1 1,0,0,0,0,0,0,0,0,0,0,0,0,0,0,1,
scooby_state_4396b8|25|22 1,0,0,0,0,0,0,0,0,0,0,0,0,0,0,1,
scooby_state_439fc5|59|2 1,0,0,0,0,0,0,0,0,0,0,0,0,0,0,1,
scooby_state_439fc0|14|0 1,0,0,0,0,0,0,0,0,0,0,0,0,0,0,1,
scooby_state_43a3e1|15|1 1,0,0,0,0,0,0,0,0,0,0,0,0,0,0,1,
scooby_state_439f43|61|0 1,0,0,0,0,0,0,0,0,0,0,0,0,0,0,1,
scooby_state_43a4c4|19|1 1,0,0,0,0,0,0,0,0,0,0,0,0,0,0,1,
scooby_state_43a1c3|7|1 1,0,0,0,0,0,0,0,0,0,0,0,0,0,0,1,
scooby_state_439630|24|0 1,0,0,0,0,0,0,0,0,0,0,0,0,0,0,1,
scooby_state_43a3e1|39|1 1,0,0,0,0,0,0,0,0,0,0,0,0,0,0,1,
scooby_state_439fc5|52|0 1,0,0,0,0,0,0,0,0,0,0,0,0,0,0,1,
scooby_state_439690|26|-28 1,0,0,0,0,0,0,0,0,0,0,0,0,0,0,1,
scooby_state_43a3e1|24|1 1,0,0,0,0,0,0,0,0,0,0,0,0,0,0,1,
scooby_state_439e34|49|9 1,0,0,0,0,0,0,0,0,0,0,0,0,0,0,1,
scooby_state_43a644|25|1 1,0,0,0,0,0,0,0,0,0,0,0,0,0,0,1,
scooby_state_439ed4|0|-52 1,0,0,0,0,0,0,0,0,0,0,0,0,0,0,1,
scooby_state_439e34|52|3 1,0,0,0,0,0,0,0,0,0,0,0,0,0,0,1,
scooby_state_43a601|24|1 1,0,0,0,0,0,0,0,0,0,0,0,0,0,0,1,
scooby_state_439e30|12|0 1,0,0,0,0,0,0,0,0,0,0,0,0,0,0,1,
scooby_state_43a3e1|42|1 1,0,0,0,0,0,0,0,0,0,0,0,0,0,0,1,
scooby_state_43a3e1|17|-46 1,0,0,0,0,0,0,0,0,0,0,0,0,0,0,1,
scooby_state_439e34|49|12 1,0,0,0,0,0,0,0,0,0,0,0,0,0,0,1,
scooby_state_439943|37|1 1,0,0,0,0,0,0,0,0,0,0,0,0,0,0,1,
scooby_state_439761|49|17 1,0,0,0,0,0,0,0,0,0,0,0,0,0,0,1,
scooby_state_43a743|29|1 1,0,0,0,0,0,0,0,0,0,0,0,0,0,0,1,
scooby_state_43a183|51|0 1,0,0,0,0,0,0,0,0,0,0,0,0,0,0,1,
scooby_state_43a3e1|10|1 1,0,0,0,0,0,0,0,0,0,0,0,0,0,0,1,
scooby_state_43a786|30|1 1,0,0,0,0,0,0,0,0,0,0,0,0,0,0,1,
scooby_state_439fc5|56|0 1,0,0,0,0,0,0,0,0,0,0,0,0,0,0,1,
scooby_state_43a481|18|1 1,0,0,0,0,0,0,0,0,0,0,0,0,0,0,1,
scooby_state_43a582|22|1 1,0,0,0,0,0,0,0,0,0,0,0,0,0,0,1,
scooby_state_43a258|3|-27 1,0,0,0,0,0,0,0,0,0,0,0,0,0,0,1,
scooby_state_43a6e3|4|-5 1,0,0,0,0,0,0,0,0,0,0,0,0,0,0,1,
scooby_state_43964a|2|-1 1,0,0,0,0,0,0,0,0,0,0,0,0,0,0,1,
scooby_state_43a5dd|46|31 1,0,0,0,0,0,0,0,0,0,0,0,0,0,0,1,
scooby_state_43a3e1|26|1 1,0,0,0,0,0,0,0,0,0,0,0,0,0,0,1,
scooby_state_43a3e1|15|-48 1,0,0,0,0,0,0,0,0,0,0,0,0,0,0,1,
scooby_state_43a3e1|18|1 1,0,0,0,0,0,0,0,0,0,0,0,0,0,0,1,
scooby_state_43a7c0|31|1 1,0,0,0,0,0,0,0,0,0,0,0,0,0,0,1,
scooby_state_439fc5|57|0 1,0,0,0,0,0,0,0,0,0,0,0,0,0,0,1,
scooby_state_43a183|55|0 1,0,0,0,0,0,0,0,0,0,0,0,0,0,0,1,
scooby_state_43a5d8|25|1 1,0,0,0,0,0,0,0,0,0,0,0,0,0,0,1,
scooby_state_439900|36|1 1,0,0,0,0,0,0,0,0,0,0,0,0,0,0,1,
scooby_state_439e30|17|0 1,0,0,0,0,0,0,0,0,0,0,0,0,0,0,1,
scooby_state_439e34|43|1 1,0,0,0,0,0,0,0,0,0,0,0,0,0,0,1,
scooby_state_43a3e7|0|-15 1,0,0,0,0,0,0,0,0,0,0,0,0,0,0,1,
scooby_state_439fc5|55|0 1,0,0,0,0,0,0,0,0,0,0,0,0,0,0,1,
scooby_state_43a239|30|28 1,0,0,0,0,0,0,0,0,0,0,0,0,0,0,1,
scooby_state_439e34|49|8 1,0,0,0,0,0,0,0,0,0,0,0,0,0,0,1,
scooby_state_43a3e1|14|-49 1,0,0,0,0,0,0,0,0,0,0,0,0,0,0,1,
scooby_state_439640|25|1 1,0,0,0,0,0,0,0,0,0,0,0,0,0,0,1,
scooby_state_43a6c3|27|1 1,0,0,0,0,0,0,0,0,0,0,0,0,0,0,1,
scooby_state_4399c1|39|1 1,0,0,0,0,0,0,0,0,0,0,0,0,0,0,1,
scooby_state_439d82|54|1 1,0,0,0,0,0,0,0,0,0,0,0,0,0,0,1,
scooby_state_43a000|0|0 1,0,0,0,0,0,0,0,0,0,0,0,0,0,0,1,
scooby_state_43a5d8|26|1 1,0,0,0,0,0,0,0,0,0,0,0,0,0,0,1,
scooby_state_43a3e1|23|1 1,0,0,0,0,0,0,0,0,0,0,0,0,0,0,1,
scooby_state_439e34|51|2 1,0,0,0,0,0,0,0,0,0,0,0,0,0,0,1,
scooby_state_439dc0|55|0 0,1,0,0,0,0,0,0,0,0,0,0,0,0,0,1,
scooby_state_439fc5|51|0 1,0,0,0,0,0,0,0,0,0,0,0,0,0,0,1,
scooby_state_43a5d8|23|1 1,0,0,0,0,0,0,0,0,0,0,0,0,0,0,1,
scooby_state_439985|38|1 1,0,0,0,0,0,0,0,0,0,0,0,0,0,0,1,
scooby_state_43a3e1|12|-51 1,0,0,0,0,0,0,0,0,0,0,0,0,0,0,1,
scooby_state_439cc3|51|1 1,0,0,0,0,0,0,0,0,0,0,0,0,0,0,1,
scooby_state_43a303|12|1 1,0,0,0,0,0,0,0,0,0,0,0,0,0,0,1,
scooby_state_439d2a|11|-1 1,0,0,0,0,0,0,0,0,0,0,0,0,0,0,1,
scooby_state_439b44|13|-1 1,0,0,0,0,0,0,0,0,0,0,0,0,0,0,1,
scooby_state_439a47|41|1 1,0,0,0,0,0,0,0,0,0,0,0,0,0,0,1,
scooby_state_439b83|46|1 1,0,0,0,0,0,0,0,0,0,0,0,0,0,0,1,
scooby_state_43a3e1|52|1 1,0,0,0,0,0,0,0,0,0,0,0,0,0,0,1,
scooby_state_439e34|49|11 1,0,0,0,0,0,0,0,0,0,0,0,0,0,0,1,
scooby_state_439c26|12|-1 1,0,0,0,0,0,0,0,0,0,0,0,0,0,0,1,
scooby_state_43a3e7|0|-17 1,0,0,0,0,0,0,0,0,0,0,0,0,0,0,1,
scooby_state_439c00|48|1 1,0,0,0,0,0,0,0,0,0,0,0,0,0,0,1,
scooby_state_439ec4|59|1 1,0,0,0,0,0,0,0,0,0,0,0,0,0,0,1,
scooby_state_43a183|52|0 1,0,0,0,0,0,0,0,0,0,0,0,0,0,0,1,
scooby_state_439c45|49|1 1,0,0,0,0,0,0,0,0,0,0,0,0,0,0,1,
scooby_state_439fc5|58|0 1,0,0,0,0,0,0,0,0,0,0,0,0,0,0,1,
scooby_state_43a5d8|24|1 1,0,0,0,0,0,0,0,0,0,0,0,0,0,0,1,
scooby_state_439f81|62|1 1,0,0,0,0,0,0,0,0,0,0,0,0,0,0,1,
scooby_state_43a244|9|0 1,0,0,0,0,0,0,0,0,0,0,0,0,0,0,1,
scooby_state_439df5|4|-1 0,1,0,0,0,0,0,0,0,0,0,0,0,0,0,1,
scooby_state_43a74b|3|1 1,0,0,0,0,0,0,0,0,0,0,0,0,0,0,1,
scooby_state_439c89|50|1 1,0,0,0,0,0,0,0,0,0,0,0,0,0,0,1,
scooby_state_43a3e1|36|1 1,0,0,0,0,0,0,0,0,0,0,0,0,0,0,1,
scooby_state_43a3e1|40|1 1,0,0,0,0,0,0,0,0,0,0,0,0,0,0,1,
scooby_state_439e34|53|4 1,0,0,0,0,0,0,0,0,0,0,0,0,0,0,1,
scooby_state_4397c1|31|1 1,0,0,0,0,0,0,0,0,0,0,0,0,0,0,1,
scooby_state_439fc0|15|0 1,0,0,0,0,0,0,0,0,0,0,0,0,0,0,1,
scooby_state_439ed4|0|-53 1,0,0,0,0,0,0,0,0,0,0,0,0,0,0,1,
scooby_state_439d45|53|11 1,0,0,0,0,0,0,0,0,0,0,0,0,0,0,1,
scooby_state_439fc0|17|0 1,0,0,0,0,0,0,0,0,0,0,0,0,0,0,1,
scooby_state_439fc0|13|0 1,0,0,0,0,0,0,0,0,0,0,0,0,0,0,1,
scooby_state_439740|29|1 1,0,0,0,0,0,0,0,0,0,0,0,0,0,0,1,
scooby_state_439ed4|0|-51 1,0,0,0,0,0,0,0,0,0,0,0,0,0,0,1,
scooby_state_439d07|52|1 1,0,0,0,0,0,0,0,0,0,0,0,0,0,0,1,
scooby_state_439b0e|8|0 1,0,0,0,0,0,0,0,0,0,0,0,0,0,0,1,
scooby_state_439ae8|43|0 1,0,0,0,0,0,0,0,0,0,0,0,0,0,0,1,
scooby_state_439e06|56|1 1,0,0,0,0,0,0,0,0,0,0,0,0,0,0,1,
scooby_state_43a3e7|0|-12 1,0,0,0,0,0,0,0,0,0,0,0,0,0,0,1,
scooby_state_439b44|45|1 1,0,0,0,0,0,0,0,0,0,0,0,0,0,0,1,
scooby_state_43a3e1|8|1 1,0,0,0,0,0,0,0,0,0,0,0,0,0,0,1,
scooby_state_43977e|2|-6 1,0,0,0,0,0,0,0,0,0,0,0,0,0,0,1,
scooby_state_43a3e7|0|-11 1,0,0,0,0,0,0,0,0,0,0,0,0,0,0,1,
scooby_state_43a183|53|0 1,0,0,0,0,0,0,0,0,0,0,0,0,0,0,1,
scooby_state_43a5c2|23|1 1,0,0,0,0,0,0,0,0,0,0,0,0,0,0,1,
scooby_state_439e30|15|0 1,0,0,0,0,0,0,0,0,0,0,0,0,0,0,1,
scooby_state_439843|33|1 1,0,0,0,0,0,0,0,0,0,0,0,0,0,0,1,
scooby_state_43a3e1|4|1 1,0,0,0,0,0,0,0,0,0,0,0,0,0,0,1,
scooby_state_439cde|32|0 1,0,0,0,0,0,0,0,0,0,0,0,0,0,0,1,
scooby_state_43a5d8|30|4 1,0,0,0,0,0,0,0,0,0,0,0,0,0,0,1,
scooby_state_439886|34|1 1,0,0,0,0,0,0,0,0,0,0,0,0,0,0,1,
scooby_state_439e30|11|0 1,0,0,0,0,0,0,0,0,0,0,0,0,0,0,1,
scooby_state_43a5ea|30|5 1,0,0,0,0,0,0,0,0,0,0,0,0,0,0,1,
scooby_state_439a04|40|1 1,0,0,0,0,0,0,0,0,0,0,0,0,0,0,1,
scooby_state_43a380|14|1 1,0,0,0,0,0,0,0,0,0,0,0,0,0,0,1,
scooby_state_43a3e7|0|-14 1,0,0,0,0,0,0,0,0,0,0,0,0,0,0,1,
scooby_state_439e44|57|1 1,0,0,0,0,0,0,0,0,0,0,0,0,0,0,1,
scooby_state_439e06|5|-25 1,0,0,0,0,0,0,0,0,0,0,0,0,0,0,1,
scooby_state_43a703|28|0 1,0,0,0,0,0,0,0,0,0,0,0,0,0,0,1,
scooby_state_43a080|2|1 1,0,0,0,0,0,0,0,0,0,0,0,0,0,0,1,
scooby_state_439fc0|18|0 1,0,0,0,0,0,0,0,0,0,0,0,0,0,0,1,
scooby_state_439bc1|47|1 1,0,0,0,0,0,0,0,0,0,0,0,0,0,0,1,
scooby_state_43a183|56|0 1,0,0,0,0,0,0,0,0,0,0,0,0,0,0,1,
scooby_state_4398c3|35|1 1,0,0,0,0,0,0,0,0,0,0,0,0,0,0,1,
scooby_state_4396c0|27|1 1,0,0,0,0,0,0,0,0,0,0,0,0,0,0,1,
scooby_state_439dd6|30|27 1,0,0,0,0,0,0,0,0,0,0,0,0,0,0,1,
scooby_state_43a3e1|11|-52 1,0,0,0,0,0,0,0,0,0,0,0,0,0,0,1,
scooby_state_439cea|33|0 1,0,0,0,0,0,0,0,0,0,0,0,0,0,0,1,
scooby_state_43a442|17|1 1,0,0,0,0,0,0,0,0,0,0,0,0,0,0,1,
scooby_state_43a3c2|15|1 1,0,0,0,0,0,0,0,0,0,0,0,0,0,0,1,
scooby_state_43a341|13|1 1,0,0,0,0,0,0,0,0,0,0,0,0,0,0,1,
scooby_state_439ae8|14|0 1,0,0,0,0,0,0,0,0,0,0,0,0,0,0,1,
scooby_state_439f04|60|1 1,0,0,0,0,0,0,0,0,0,0,0,0,0,0,1,
scooby_state_43a2c2|11|1 1,0,0,0,0,0,0,0,0,0,0,0,0,0,0,1,
scooby_state_439e83|58|1 1,0,0,0,0,0,0,0,0,0,0,0,0,0,0,1,
scooby_state_43a203|8|1 1,0,0,0,0,0,0,0,0,0,0,0,0,0,0,1,
scooby_state_439802|32|1 1,0,0,0,0,0,0,0,0,0,0,0,0,0,0,1,
scooby_state_43a280|10|1 1,0,0,0,0,0,0,0,0,0,0,0,0,0,0,1,
scooby_state_43a2ba|1|-2 1,0,0,0,0,0,0,0,0,0,0,0,0,0,0,1,
scooby_state_439fc5|53|0 1,0,0,0,0,0,0,0,0,0,0,0,0,0,0,1,
scooby_state_43a3e1|7|1 1,0,0,0,0,0,0,0,0,0,0,0,0,0,0,1,
scooby_state_439b05|44|1 1,0,0,0,0,0,0,0,0,0,0,0,0,0,0,1,
scooby_state_43a6e3|4|-1 1,0,0,0,0,0,0,0,0,0,0,0,0,0,0,1,
scooby_state_439787|30|1 1,0,0,0,0,0,0,0,0,0,0,0,0,0,0,1,
scooby_state_43a540|21|2 1,0,0,0,0,0,0,0,0,0,0,0,0,0,0,1,
scooby_state_43a045|1|1 1,0,0,0,0,0,0,0,0,0,0,0,0,0,0,1,
scooby_state_43a3e1|20|1 1,0,0,0,0,0,0,0,0,0,0,0,0,0,0,1,

scooby_action_0_deg_dist 0,56,0,0,0,0,0,0,0,0,0,0,0,0,0,0,
scooby_action_22_deg_dist 0,56,0,0,0,0,0,0,0,0,0,0,0,0,0,0,
scooby_action_4_deg_dist 0,124,36,0,90,0,378,0,0,0,0,0,0,0,0,0,
scooby_action_1_deg_dist 0,21648,13614,0,32775,0,352899,0,0,0,0,0,0,0,0,0,
scooby_action_30_deg_dist 0,61,0,0,0,0,0,0,0,0,0,0,0,0,0,0,
scooby_action_3_deg_dist 0,76,0,0,0,0,0,0,0,0,0,0,0,0,0,0,
scooby_action_32_deg_dist 0,42,0,0,0,0,0,0,0,0,0,0,0,0,0,0,
scooby_action_5_deg_dist 0,51,0,0,0,0,0,0,0,0,0,0,0,0,0,0,
scooby_action_10_deg_dist 0,67,0,0,0,0,0,0,0,0,0,0,0,0,0,0,
scooby_action_-6_deg_dist 0,40,0,0,0,0,0,0,0,0,0,0,0,0,0,0,
scooby_action_11_deg_dist 0,54,0,0,0,0,0,0,0,0,0,0,0,0,0,0,
scooby_action_23_deg_dist 0,56,0,0,0,0,0,0,0,0,0,0,0,0,0,0,
scooby_action_-1_deg_dist 0,66,0,0,0,0,0,0,0,0,0,0,0,0,0,0,
scooby_action_12_deg_dist 0,60,0,0,0,0,0,0,0,0,0,0,0,0,0,0,
scooby_action_-3_deg_dist 0,50,0,0,0,0,0,0,0,0,0,0,0,0,0,0,

scooby_track_called 422299
scooby_track_same_address 1701
scooby_track_evict 420342

scooby_reward_demand_called 422299
scooby_reward_demand_pt_not_found 14240
scooby_reward_demand_pt_found 408059
scooby_reward_demand_pt_found_total 408059
scooby_reward_demand_has_reward 165
scooby_reward_train_called 6007
scooby_reward_assign_reward_called 420589
scooby_reward_no_pref 56
scooby_reward_incorrect 5951
scooby_reward_correct_untimely 381254
scooby_reward_correct_timely 26640
scooby_reward_out_of_bounds 6688
scooby_reward_tracker_hit 0

scooby_reward_none_low_bw 56
scooby_reward_none_high_bw 0
scooby_reward_incorrect_low_bw 5951
scooby_reward_incorrect_high_bw 0
scooby_reward_correct_untimely_low_bw 381254
scooby_reward_correct_untimely_high_bw 0
scooby_reward_correct_timely_low_bw 26640
scooby_reward_correct_timely_high_bw 0
scooby_reward_out_of_bounds_low_bw 6688
scooby_reward_out_of_bounds_high_bw 0
scooby_reward_tracker_hit_low_bw 0
scooby_reward_tracker_hit_high_bw 0

scooby_reward_1 0,5791,380714,26338,6532,0,
scooby_reward_3 0,15,48,8,3,0,
scooby_reward_4 0,58,395,135,38,0,
scooby_reward_5 0,5,34,8,2,0,
scooby_reward_10 0,3,14,40,9,0,
scooby_reward_11 0,5,9,33,6,0,
scooby_reward_12 0,7,19,26,8,0,
scooby_reward_22 0,6,10,16,24,0,
scooby_reward_23 0,10,10,19,17,0,
scooby_reward_30 0,25,1,9,25,0,
scooby_reward_32 0,14,0,8,20,0,
scooby_reward_-1 0,3,0,0,0,0,
scooby_reward_-3 0,5,0,0,0,0,
scooby_reward_-6 0,4,0,0,4,0,
scooby_reward_0 56,0,0,0,0,0,

scooby_train_called 420341
scooby_train_compute_reward 6007

scooby_register_fill_called 303939
scooby_register_fill_set 27104
scooby_register_fill_set_total 27104

scooby_register_prefetch_hit_called 1808124
scooby_register_prefetch_hit_set 390364
scooby_register_prefetch_hit_set_total 390364

scooby_pref_issue_scooby 2163773

learning_engine_featurewise.action.called 422299
learning_engine_featurewise.action.explore 792
learning_engine_featurewise.action.exploit 421507
learning_engine_featurewise.action.fallback 0
learning_engine_featurewise.action.dyn_fallback_saved_bw 0
learning_engine_featurewise.action.dyn_fallback_saved_bw_acc 343
learning_engine_featurewise.action.index_1_explored 44
learning_engine_featurewise.action.index_1_exploited 420892
learning_engine_featurewise.action.index_3_explored 56
learning_engine_featurewise.action.index_3_exploited 20
learning_engine_featurewise.action.index_4_explored 44
learning_engine_featurewise.action.index_4_exploited 584
learning_engine_featurewise.action.index_5_explored 48
learning_engine_featurewise.action.index_5_exploited 3
learning_engine_featurewise.action.index_10_explored 64
learning_engine_featurewise.action.index_10_exploited 3
learning_engine_featurewise.action.index_11_explored 52
learning_engine_featurewise.action.index_11_exploited 2
learning_engine_featurewise.action.index_12_explored 59
learning_engine_featurewise.action.index_12_exploited 1
learning_engine_featurewise.action.index_22_explored 55
learning_engine_featurewise.action.index_22_exploited 1
learning_engine_featurewise.action.index_23_explored 55
learning_engine_featurewise.action.index_23_exploited 1
learning_engine_featurewise.action.index_30_explored 61
learning_engine_featurewise.action.index_30_exploited 0
learning_engine_featurewise.action.index_32_explored 42
learning_engine_featurewise.action.index_32_exploited 0
learning_engine_featurewise.action.index_-1_explored 66
learning_engine_featurewise.action.index_-1_exploited 0
learning_engine_featurewise.action.index_-3_explored 50
learning_engine_featurewise.action.index_-3_exploited 0
learning_engine_featurewise.action.index_-6_explored 40
learning_engine_featurewise.action.index_-6_exploited 0
learning_engine_featurewise.action.index_0_explored 56
learning_engine_featurewise.action.index_0_exploited 0
learning_engine_featurewise.learn.called 420341
learning_engine_featurewise.learn.su_skip_PC 0
learning_engine_featurewise.learn.su_skip_PC_Delta 0

learning_engine_featurewise.q_value_histogram.bucket_0 0
learning_engine_featurewise.q_value_histogram.bucket_1 0
learning_engine_featurewise.q_value_histogram.bucket_2 0
learning_engine_featurewise.q_value_histogram.bucket_3 0
learning_engine_featurewise.q_value_histogram.bucket_4 1744
learning_engine_featurewise.q_value_histogram.bucket_5 2661
learning_engine_featurewise.q_value_histogram.bucket_6 417102
learning_engine_featurewise.q_value_histogram.bucket_7 0

learning_engine_featurewise.consensus.total 421507
learning_engine_featurewise.consensus.feature_align_PC 419386
learning_engine_featurewise.consensus.feature_align_PC_ratio 0.99
learning_engine_featurewise.consensus.feature_align_PC_Delta 421239
learning_engine_featurewise.consensus.feature_align_PC_Delta_ratio 1.00
learning_engine_featurewise.consensus.feature_align_all 419118
learning_engine_featurewise.consensus.feature_align_all_ratio 0.99

learning_engine_featurewise.feature_PC_min_weight 1000000.00000000
learning_engine_featurewise.feature_PC_max_weight 0.00000000
learning_engine_featurewise.feature_PC_Delta_min_weight 1000000.00000000
learning_engine_featurewise.feature_PC_Delta_max_weight 0.00000000
unique_pcs 179
unique_pages 3799
unique_trigger_pcs 58
total_bitmaps_seen 0
unique_bitmaps_seen 0

scooby_bw_epochs 169103
scooby_bw_level_0 146569
scooby_bw_level_1 17300
scooby_bw_level_2 3186
scooby_bw_level_3 2048

scooby_ipc_epochs 0
scooby_ipc_level_0 0
scooby_ipc_level_1 0
scooby_ipc_level_2 0
scooby_ipc_level_3 0

scooby_cache_acc_epochs 41789
scooby_cache_acc_level_0 212
scooby_cache_acc_level_1 2163
scooby_cache_acc_level_2 2751
scooby_cache_acc_level_3 2974
scooby_cache_acc_level_4 3260
scooby_cache_acc_level_5 3058
scooby_cache_acc_level_6 3412
scooby_cache_acc_level_7 2689
scooby_cache_acc_level_8 4809
scooby_cache_acc_level_9 16461

Channel_0_RQ_row_buffer_hit 71374
Channel_0_RQ_row_buffer_miss 163885
Channel_0_WQ_row_buffer_hit 30314
Channel_0_WQ_row_buffer_miss 89300
Channel_0_WQ_full 603
Channel_0_dbus_congested 132315

avg_congested_cycle 10

DRAM_bw_pochs 169103
DRAM_bw_level_0 146569
DRAM_bw_level_1 17300
DRAM_bw_level_2 3186
DRAM_bw_level_3 2048
