*************************************************
   ChampSim Multicore Out-of-Order Simulator
   Last compiled: Apr  3 2025 20:54:34
*************************************************
parsing config file: /home/zir/Pythia/config/spp_dev2.ini

trace_0 /home/zir/ChampSim/ML-DPC/ChampSimTraces/spec06/462.libquantum-s1.trace.gz
adding L2C_PREFETCHER: SPP_dev2
Initialize SIGNATURE TABLE
ST_SET: 1
ST_WAY: 256
ST_TAG_BIT: 16
ST_TAG_MASK: ffff

Initialize PATTERN TABLE
PT_SET: 512
PT_WAY: 4
SIG_DELTA_BIT: 7
C_SIG_BIT: 4
C_DELTA_BIT: 4

Initialize PREFETCH FILTER
FILTER_SET: 1024
fill_threshold: 90
pf_threshold: 40

Initialize SHIP state
warmup_instructions 10000000
simulation_instructions 50000000
champsim_seed 164
measure_ipc 0
measure_ipc_epoch 1000
measure_dram_bw 1
measure_dram_bw_epoch 256
measure_cache_acc 1
measure_cache_acc_epoch 1024
l1d_perfect 0
l2c_perfect 0
llc_perfect 0
l1d_semi_perfect 0
l2c_semi_perfect 0
llc_semi_perfect 0
semi_perfect_cache_page_buffer_size 64

num_cpus 1
cpu_freq 4000
dram_io_freq 2400
page_size 4096
block_size 64
max_read_per_cycle 8
max_fill_per_cycle 1
dram_channels 1
log2_dram_channels 0
dram_ranks 1
dram_banks 8
dram_rows 65536
dram_columns 128
dram_row_size 8
dram_size 4096
dram_pages 1048576

fetch_width 6
decode_width 6
exec_width 4
lq_width 2
sq_width 2
retire_width 4
scheduler_size 128
branch_mispredict_penalty 20
rob_size 256
lq_size 72
sq_size 56
num_instr_destinations_sparc 4
num_instr_destinations 2
num_instr_sources 4

itlb_set 16
itlb_way 8
itlb_rq_size 16
itlb_wq_size 16
itlb_pq_size 0
itlb_mshr_size 8
itlb_latency 1

dtlb_set 16
dtlb_way 4
dtlb_rq_size 16
dtlb_wq_size 16
dtlb_pq_size 0
dtlb_mshr_size 8
dtlb_latency 1

stlb_set 128
stlb_way 12
stlb_rq_size 32
stlb_wq_size 32
stlb_pq_size 0
stlb_mshr_size 16
stlb_latency 8

l1i_size 32
l1i_set 64
l1i_way 8
l1i_rq_size 64
l1i_wq_size 64
l1i_pq_size 8
l1i_mshr_size 8
l1i_latency 1

l1d_size 32
l1d_set 64
l1d_way 8
l1d_rq_size 64
l1d_wq_size 64
l1d_pq_size 8
l1d_mshr_size 16
l1d_latency 4

l2c_size 256
l2c_set 512
l2c_way 8
l2c_rq_size 32
l2c_wq_size 32
l2c_pq_size 32
l2c_mshr_size 32
l2c_latency 10

llc_size 2048
llc_set 2048
llc_way 16
llc_rq_size 32
llc_wq_size 32
llc_pq_size 32
llc_mshr_size 64
llc_latency 20

dram_channel_width 8
dram_wq_size 64
dram_rq_size 64
tRP 15
tRCD 15
tCAS 12.5
dram_dbus_turn_around_time 30
dram_write_high_wm 56
dram_write_low_wm 48
min_dram_writes_per_switch 16
dram_mtps 2400
dram_dbus_return_time 13


Heartbeat CPU  0 instructions:    1000001 cycles:     275607 heartbeat IPC: 3.62836 cumulative IPC: 3.62836 (Simulation time: 0 hr 0 min 1 sec) 
Heartbeat CPU  0 instructions:    2000001 cycles:     551183 heartbeat IPC: 3.62876 cumulative IPC: 3.62856 (Simulation time: 0 hr 0 min 2 sec) 
Heartbeat CPU  0 instructions:    3000002 cycles:    1179285 heartbeat IPC: 1.59210 cumulative IPC: 2.54392 (Simulation time: 0 hr 0 min 3 sec) 
Heartbeat CPU  0 instructions:    4000000 cycles:    2461100 heartbeat IPC: 0.78014 cumulative IPC: 1.62529 (Simulation time: 0 hr 0 min 4 sec) 
Heartbeat CPU  0 instructions:    5000003 cycles:    3743045 heartbeat IPC: 0.78007 cumulative IPC: 1.33581 (Simulation time: 0 hr 0 min 5 sec) 
Heartbeat CPU  0 instructions:    6000003 cycles:    5024921 heartbeat IPC: 0.78011 cumulative IPC: 1.19405 (Simulation time: 0 hr 0 min 6 sec) 
Heartbeat CPU  0 instructions:    7000000 cycles:    6306727 heartbeat IPC: 0.78015 cumulative IPC: 1.10993 (Simulation time: 0 hr 0 min 7 sec) 
Heartbeat CPU  0 instructions:    8000000 cycles:    7453985 heartbeat IPC: 0.87164 cumulative IPC: 1.07325 (Simulation time: 0 hr 0 min 8 sec) 
Heartbeat CPU  0 instructions:    9000003 cycles:    7726846 heartbeat IPC: 3.66488 cumulative IPC: 1.16477 (Simulation time: 0 hr 0 min 9 sec) 
Heartbeat CPU  0 instructions:   10000003 cycles:    7999694 heartbeat IPC: 3.66504 cumulative IPC: 1.25005 (Simulation time: 0 hr 0 min 10 sec) 

Warmup complete CPU  0 instructions:   10000003 cycles:    7999694 (Simulation time: 0 hr 0 min 10 sec) 

Heartbeat CPU  0 instructions:   11000001 cycles:    8827559 heartbeat IPC: 1.20792 cumulative IPC: 1.20792 (Simulation time: 0 hr 0 min 12 sec) 
Heartbeat CPU  0 instructions:   12000000 cycles:    9650968 heartbeat IPC: 1.21446 cumulative IPC: 1.21118 (Simulation time: 0 hr 0 min 14 sec) 
Heartbeat CPU  0 instructions:   13000000 cycles:   11128902 heartbeat IPC: 0.67662 cumulative IPC: 0.95871 (Simulation time: 0 hr 0 min 15 sec) 
Heartbeat CPU  0 instructions:   14000000 cycles:   13529230 heartbeat IPC: 0.41661 cumulative IPC: 0.72339 (Simulation time: 0 hr 0 min 16 sec) 
Heartbeat CPU  0 instructions:   15000000 cycles:   15985828 heartbeat IPC: 0.40707 cumulative IPC: 0.62608 (Simulation time: 0 hr 0 min 18 sec) 
Heartbeat CPU  0 instructions:   16000000 cycles:   18442629 heartbeat IPC: 0.40703 cumulative IPC: 0.57455 (Simulation time: 0 hr 0 min 19 sec) 
Heartbeat CPU  0 instructions:   17000002 cycles:   20902872 heartbeat IPC: 0.40646 cumulative IPC: 0.54250 (Simulation time: 0 hr 0 min 21 sec) 
Heartbeat CPU  0 instructions:   18000001 cycles:   22979234 heartbeat IPC: 0.48161 cumulative IPC: 0.53406 (Simulation time: 0 hr 0 min 22 sec) 
Heartbeat CPU  0 instructions:   19000000 cycles:   24283998 heartbeat IPC: 0.76642 cumulative IPC: 0.55268 (Simulation time: 0 hr 0 min 24 sec) 
Heartbeat CPU  0 instructions:   20000000 cycles:   25228882 heartbeat IPC: 1.05833 cumulative IPC: 0.58041 (Simulation time: 0 hr 0 min 26 sec) 
Heartbeat CPU  0 instructions:   21000001 cycles:   26075051 heartbeat IPC: 1.18180 cumulative IPC: 0.60856 (Simulation time: 0 hr 0 min 27 sec) 
Heartbeat CPU  0 instructions:   22000000 cycles:   26916227 heartbeat IPC: 1.18881 cumulative IPC: 0.63437 (Simulation time: 0 hr 0 min 29 sec) 
Heartbeat CPU  0 instructions:   23000001 cycles:   28767280 heartbeat IPC: 0.54023 cumulative IPC: 0.62598 (Simulation time: 0 hr 0 min 30 sec) 
Heartbeat CPU  0 instructions:   24000000 cycles:   31195129 heartbeat IPC: 0.41189 cumulative IPC: 0.60357 (Simulation time: 0 hr 0 min 32 sec) 
Heartbeat CPU  0 instructions:   25000000 cycles:   33661979 heartbeat IPC: 0.40538 cumulative IPC: 0.58452 (Simulation time: 0 hr 0 min 33 sec) 
Heartbeat CPU  0 instructions:   26000000 cycles:   36126139 heartbeat IPC: 0.40582 cumulative IPC: 0.56886 (Simulation time: 0 hr 0 min 35 sec) 
Heartbeat CPU  0 instructions:   27000001 cycles:   38589293 heartbeat IPC: 0.40598 cumulative IPC: 0.55574 (Simulation time: 0 hr 0 min 36 sec) 
Heartbeat CPU  0 instructions:   28000000 cycles:   40397828 heartbeat IPC: 0.55293 cumulative IPC: 0.55559 (Simulation time: 0 hr 0 min 38 sec) 
Heartbeat CPU  0 instructions:   29000000 cycles:   41613310 heartbeat IPC: 0.82272 cumulative IPC: 0.56525 (Simulation time: 0 hr 0 min 40 sec) 
Heartbeat CPU  0 instructions:   30000001 cycles:   42504743 heartbeat IPC: 1.12179 cumulative IPC: 0.57963 (Simulation time: 0 hr 0 min 41 sec) 
Heartbeat CPU  0 instructions:   31000000 cycles:   43334841 heartbeat IPC: 1.20468 cumulative IPC: 0.59431 (Simulation time: 0 hr 0 min 43 sec) 
Heartbeat CPU  0 instructions:   32000000 cycles:   44163806 heartbeat IPC: 1.20632 cumulative IPC: 0.60834 (Simulation time: 0 hr 0 min 44 sec) 
Heartbeat CPU  0 instructions:   33000000 cycles:   46979149 heartbeat IPC: 0.35520 cumulative IPC: 0.59005 (Simulation time: 0 hr 0 min 46 sec) 
Heartbeat CPU  0 instructions:   34000000 cycles:   50100986 heartbeat IPC: 0.32032 cumulative IPC: 0.57005 (Simulation time: 0 hr 0 min 47 sec) 
Heartbeat CPU  0 instructions:   35000000 cycles:   53248655 heartbeat IPC: 0.31770 cumulative IPC: 0.55250 (Simulation time: 0 hr 0 min 49 sec) 
Heartbeat CPU  0 instructions:   36000000 cycles:   56398221 heartbeat IPC: 0.31750 cumulative IPC: 0.53721 (Simulation time: 0 hr 0 min 50 sec) 
Heartbeat CPU  0 instructions:   37000002 cycles:   59546986 heartbeat IPC: 0.31759 cumulative IPC: 0.52379 (Simulation time: 0 hr 0 min 52 sec) 
Heartbeat CPU  0 instructions:   38000003 cycles:   61611087 heartbeat IPC: 0.48447 cumulative IPC: 0.52228 (Simulation time: 0 hr 0 min 54 sec) 
Heartbeat CPU  0 instructions:   39000002 cycles:   62893297 heartbeat IPC: 0.77990 cumulative IPC: 0.52829 (Simulation time: 0 hr 0 min 55 sec) 
Heartbeat CPU  0 instructions:   40000000 cycles:   63784137 heartbeat IPC: 1.12253 cumulative IPC: 0.53778 (Simulation time: 0 hr 0 min 57 sec) 
Heartbeat CPU  0 instructions:   41000000 cycles:   64613323 heartbeat IPC: 1.20600 cumulative IPC: 0.54757 (Simulation time: 0 hr 0 min 59 sec) 
Heartbeat CPU  0 instructions:   42000001 cycles:   65444150 heartbeat IPC: 1.20362 cumulative IPC: 0.55706 (Simulation time: 0 hr 1 min 0 sec) 
Heartbeat CPU  0 instructions:   43000001 cycles:   68428145 heartbeat IPC: 0.33512 cumulative IPC: 0.54610 (Simulation time: 0 hr 1 min 2 sec) 
Heartbeat CPU  0 instructions:   44000000 cycles:   71566121 heartbeat IPC: 0.31868 cumulative IPC: 0.53487 (Simulation time: 0 hr 1 min 3 sec) 
Heartbeat CPU  0 instructions:   45000001 cycles:   74722858 heartbeat IPC: 0.31678 cumulative IPC: 0.52456 (Simulation time: 0 hr 1 min 5 sec) 
Heartbeat CPU  0 instructions:   46000002 cycles:   77879367 heartbeat IPC: 0.31681 cumulative IPC: 0.51517 (Simulation time: 0 hr 1 min 6 sec) 
Heartbeat CPU  0 instructions:   47000000 cycles:   81035709 heartbeat IPC: 0.31682 cumulative IPC: 0.50660 (Simulation time: 0 hr 1 min 8 sec) 
Heartbeat CPU  0 instructions:   48000000 cycles:   83007033 heartbeat IPC: 0.50727 cumulative IPC: 0.50662 (Simulation time: 0 hr 1 min 9 sec) 
Heartbeat CPU  0 instructions:   49000002 cycles:   84259703 heartbeat IPC: 0.79830 cumulative IPC: 0.51141 (Simulation time: 0 hr 1 min 11 sec) 
Heartbeat CPU  0 instructions:   50000001 cycles:   85125947 heartbeat IPC: 1.15441 cumulative IPC: 0.51863 (Simulation time: 0 hr 1 min 13 sec) 
Heartbeat CPU  0 instructions:   51000000 cycles:   85969483 heartbeat IPC: 1.18548 cumulative IPC: 0.52584 (Simulation time: 0 hr 1 min 14 sec) 
Heartbeat CPU  0 instructions:   52000000 cycles:   86811214 heartbeat IPC: 1.18803 cumulative IPC: 0.53292 (Simulation time: 0 hr 1 min 16 sec) 
Heartbeat CPU  0 instructions:   53000002 cycles:   87652207 heartbeat IPC: 1.18907 cumulative IPC: 0.53984 (Simulation time: 0 hr 1 min 18 sec) 
Heartbeat CPU  0 instructions:   54000001 cycles:   88494607 heartbeat IPC: 1.18708 cumulative IPC: 0.54662 (Simulation time: 0 hr 1 min 19 sec) 
Heartbeat CPU  0 instructions:   55000000 cycles:   89335549 heartbeat IPC: 1.18914 cumulative IPC: 0.55326 (Simulation time: 0 hr 1 min 21 sec) 
Heartbeat CPU  0 instructions:   56000000 cycles:   90180342 heartbeat IPC: 1.18372 cumulative IPC: 0.55974 (Simulation time: 0 hr 1 min 22 sec) 
Heartbeat CPU  0 instructions:   57000000 cycles:   91021550 heartbeat IPC: 1.18877 cumulative IPC: 0.56612 (Simulation time: 0 hr 1 min 24 sec) 
Heartbeat CPU  0 instructions:   58000002 cycles:   91864761 heartbeat IPC: 1.18595 cumulative IPC: 0.57235 (Simulation time: 0 hr 1 min 26 sec) 
Heartbeat CPU  0 instructions:   59000001 cycles:   92709011 heartbeat IPC: 1.18448 cumulative IPC: 0.57845 (Simulation time: 0 hr 1 min 27 sec) 
Heartbeat CPU  0 instructions:   60000000 cycles:   93549084 heartbeat IPC: 1.19037 cumulative IPC: 0.58446 (Simulation time: 0 hr 1 min 29 sec) 
Finished CPU 0 instructions: 50000000 cycles: 85549417 cumulative IPC: 0.58446 (Simulation time: 0 hr 1 min 29 sec) 

ChampSim completed all CPUs

[ROI Statistics]
Core_0_instructions 50000000
Core_0_cycles 85549417
Core_0_IPC 0.58446

Core_0_branch_prediction_accuracy 93.65159
Core_0_branch_MPKI 13.64262
Core_0_average_ROB_occupancy_at_mispredict 29.87312

Core_0_L1D_total_access 3124580
Core_0_L1D_total_hit 1781447
Core_0_L1D_total_miss 1343133
Core_0_L1D_loads 2300670
Core_0_L1D_load_hit 957545
Core_0_L1D_load_miss 1343125
Core_0_L1D_RFOs 823910
Core_0_L1D_RFO_hit 823902
Core_0_L1D_RFO_miss 8
Core_0_L1D_prefetches 0
Core_0_L1D_prefetch_hit 0
Core_0_L1D_prefetch_miss 0
Core_0_L1D_writebacks 0
Core_0_L1D_writeback_hit 0
Core_0_L1D_writeback_miss 0
Core_0_L1D_prefetch_requested 0
Core_0_L1D_prefetch_dropped 0
Core_0_L1D_prefetch_issued 0
Core_0_L1D_prefetch_filled 0
Core_0_L1D_prefetch_useful 0
Core_0_L1D_prefetch_useless 0
Core_0_L1D_prefetch_late 0
Core_0_L1D_average_miss_latency 42.88314

Core_0_L1D_rq_access 5372493
Core_0_L1D_rq_forward 0
Core_0_L1D_rq_merged 1775740
Core_0_L1D_rq_to_cache 3596753
Core_0_L1D_rq_full 0

Core_0_L1D_wq_access 823930
Core_0_L1D_wq_forward 0
Core_0_L1D_wq_merged 0
Core_0_L1D_wq_to_cache 823930
Core_0_L1D_wq_full 0

Core_0_L1D_pq_access 0
Core_0_L1D_pq_forward 0
Core_0_L1D_pq_merged 0
Core_0_L1D_pq_to_cache 0
Core_0_L1D_pq_full 0

Core_0_L1D_acc_epochs 89327
Core_0_L1D_acc_level_0 89327
Core_0_L1D_acc_level_1 0
Core_0_L1D_acc_level_2 0
Core_0_L1D_acc_level_3 0
Core_0_L1D_acc_level_4 0
Core_0_L1D_acc_level_5 0
Core_0_L1D_acc_level_6 0
Core_0_L1D_acc_level_7 0
Core_0_L1D_acc_level_8 0
Core_0_L1D_acc_level_9 0

Core_0_L1I_total_access 10165503
Core_0_L1I_total_hit 10165503
Core_0_L1I_total_miss 0
Core_0_L1I_loads 10165503
Core_0_L1I_load_hit 10165503
Core_0_L1I_load_miss 0
Core_0_L1I_RFOs 0
Core_0_L1I_RFO_hit 0
Core_0_L1I_RFO_miss 0
Core_0_L1I_prefetches 0
Core_0_L1I_prefetch_hit 0
Core_0_L1I_prefetch_miss 0
Core_0_L1I_writebacks 0
Core_0_L1I_writeback_hit 0
Core_0_L1I_writeback_miss 0
Core_0_L1I_prefetch_requested 0
Core_0_L1I_prefetch_dropped 0
Core_0_L1I_prefetch_issued 0
Core_0_L1I_prefetch_filled 0
Core_0_L1I_prefetch_useful 0
Core_0_L1I_prefetch_useless 0
Core_0_L1I_prefetch_late 0
Core_0_L1I_average_miss_latency -nan

Core_0_L1I_rq_access 50000007
Core_0_L1I_rq_forward 0
Core_0_L1I_rq_merged 39834504
Core_0_L1I_rq_to_cache 10165503
Core_0_L1I_rq_full 0

Core_0_L1I_wq_access 0
Core_0_L1I_wq_forward 0
Core_0_L1I_wq_merged 0
Core_0_L1I_wq_to_cache 0
Core_0_L1I_wq_full 0

Core_0_L1I_pq_access 0
Core_0_L1I_pq_forward 0
Core_0_L1I_pq_merged 0
Core_0_L1I_pq_to_cache 0
Core_0_L1I_pq_full 0

Core_0_L1I_acc_epochs 89327
Core_0_L1I_acc_level_0 89327
Core_0_L1I_acc_level_1 0
Core_0_L1I_acc_level_2 0
Core_0_L1I_acc_level_3 0
Core_0_L1I_acc_level_4 0
Core_0_L1I_acc_level_5 0
Core_0_L1I_acc_level_6 0
Core_0_L1I_acc_level_7 0
Core_0_L1I_acc_level_8 0
Core_0_L1I_acc_level_9 0

Core_0_L2C_total_access 2290715
Core_0_L2C_total_hit 947582
Core_0_L2C_total_miss 1343133
Core_0_L2C_loads 1343124
Core_0_L2C_load_hit 505627
Core_0_L2C_load_miss 837497
Core_0_L2C_RFOs 8
Core_0_L2C_RFO_hit 0
Core_0_L2C_RFO_miss 8
Core_0_L2C_prefetches 505671
Core_0_L2C_prefetch_hit 43
Core_0_L2C_prefetch_miss 505628
Core_0_L2C_writebacks 441912
Core_0_L2C_writeback_hit 441912
Core_0_L2C_writeback_miss 0
Core_0_L2C_prefetch_requested 11578955
Core_0_L2C_prefetch_dropped 0
Core_0_L2C_prefetch_issued 11578955
Core_0_L2C_prefetch_filled 698045
Core_0_L2C_prefetch_useful 698042
Core_0_L2C_prefetch_useless 3
Core_0_L2C_prefetch_late 297679
Core_0_L2C_average_miss_latency 42.75553

Core_0_L2C_rq_access 1343132
Core_0_L2C_rq_forward 0
Core_0_L2C_rq_merged 0
Core_0_L2C_rq_to_cache 1343132
Core_0_L2C_rq_full 0

Core_0_L2C_wq_access 441912
Core_0_L2C_wq_forward 0
Core_0_L2C_wq_merged 0
Core_0_L2C_wq_to_cache 441912
Core_0_L2C_wq_full 0

Core_0_L2C_pq_access 11578955
Core_0_L2C_pq_forward 0
Core_0_L2C_pq_merged 2033041
Core_0_L2C_pq_to_cache 9545914
Core_0_L2C_pq_full 0

Core_0_L2C_acc_epochs 89327
Core_0_L2C_acc_level_0 1
Core_0_L2C_acc_level_1 0
Core_0_L2C_acc_level_2 0
Core_0_L2C_acc_level_3 0
Core_0_L2C_acc_level_4 14
Core_0_L2C_acc_level_5 40
Core_0_L2C_acc_level_6 13
Core_0_L2C_acc_level_7 129
Core_0_L2C_acc_level_8 1109
Core_0_L2C_acc_level_9 88021

Core_0_LLC_total_access 6192785
Core_0_LLC_total_hit 4849270
Core_0_LLC_total_miss 1343515
Core_0_LLC_loads 539818
Core_0_LLC_load_hit 473490
Core_0_LLC_load_miss 66328
Core_0_LLC_RFOs 8
Core_0_LLC_RFO_hit 0
Core_0_LLC_RFO_miss 8
Core_0_LLC_prefetches 5211047
Core_0_LLC_prefetch_hit 3934241
Core_0_LLC_prefetch_miss 1276806
Core_0_LLC_writebacks 441912
Core_0_LLC_writeback_hit 441539
Core_0_LLC_writeback_miss 373
Core_0_LLC_prefetch_requested 0
Core_0_LLC_prefetch_dropped 0
Core_0_LLC_prefetch_issued 0
Core_0_LLC_prefetch_filled 1534670
Core_0_LLC_prefetch_useful 538913
Core_0_LLC_prefetch_useless 977472
Core_0_LLC_prefetch_late 27916
Core_0_LLC_average_miss_latency 150.86260

Core_0_LLC_rq_access 539826
Core_0_LLC_rq_forward 0
Core_0_LLC_rq_merged 0
Core_0_LLC_rq_to_cache 539826
Core_0_LLC_rq_full 0

Core_0_LLC_wq_access 441912
Core_0_LLC_wq_forward 0
Core_0_LLC_wq_merged 0
Core_0_LLC_wq_to_cache 441912
Core_0_LLC_wq_full 0

Core_0_LLC_pq_access 9307611
Core_0_LLC_pq_forward 0
Core_0_LLC_pq_merged 1105554
Core_0_LLC_pq_to_cache 8202057
Core_0_LLC_pq_full 0

Core_0_LLC_acc_epochs 91357
Core_0_LLC_acc_level_0 73
Core_0_LLC_acc_level_1 2704
Core_0_LLC_acc_level_2 27261
Core_0_LLC_acc_level_3 32807
Core_0_LLC_acc_level_4 23337
Core_0_LLC_acc_level_5 1954
Core_0_LLC_acc_level_6 1508
Core_0_LLC_acc_level_7 295
Core_0_LLC_acc_level_8 328
Core_0_LLC_acc_level_9 1090

Core_0_major_page_fault 0
Core_0_minor_page_fault 8201

spp.pref.total 11578955
spp.pref.at_L2 1173950
spp.pref.at_LLC 10405005

spp.depth.max 11
spp.depth.min 0
spp.depth.avg 7

spp.breadth.max 1
spp.breadth.min 0
spp.breadth.avg 0

delta_1 11699088
delta_-1 1

depth_1_delta_1 1582035
depth_1_delta_-1 1
depth_2_delta_1 1556910
depth_3_delta_1 1531792
depth_4_delta_1 1506662
depth_5_delta_1 1481399
depth_6_delta_1 1277292
depth_7_delta_1 1072900
depth_8_delta_1 990818
depth_9_delta_1 520621
depth_10_delta_1 175556
depth_11_delta_1 3103

Channel_0_RQ_row_buffer_hit 823773
Channel_0_RQ_row_buffer_miss 519370
Channel_0_WQ_row_buffer_hit 172203
Channel_0_WQ_row_buffer_miss 269736
Channel_0_WQ_full 0
Channel_0_dbus_congested 1209896

avg_congested_cycle 11

DRAM_bw_pochs 365427
DRAM_bw_level_0 159459
DRAM_bw_level_1 109941
DRAM_bw_level_2 32594
DRAM_bw_level_3 63433
