*************************************************
   ChampSim Multicore Out-of-Order Simulator
   Last compiled: Apr  3 2025 20:54:34
*************************************************
parsing config file: /home/zir/Pythia/config/nopref.ini

trace_0 /home/zir/ChampSim/ML-DPC/ChampSimTraces/spec06/470.lbm-s1.trace.gz
adding L2C_PREFETCHER: NONE
Initialize SHIP state
warmup_instructions 10000000
simulation_instructions 50000000
champsim_seed 164
measure_ipc 0
measure_ipc_epoch 1000
measure_dram_bw 1
measure_dram_bw_epoch 256
measure_cache_acc 1
measure_cache_acc_epoch 1024
l1d_perfect 0
l2c_perfect 0
llc_perfect 0
l1d_semi_perfect 0
l2c_semi_perfect 0
llc_semi_perfect 0
semi_perfect_cache_page_buffer_size 64

num_cpus 1
cpu_freq 4000
dram_io_freq 2400
page_size 4096
block_size 64
max_read_per_cycle 8
max_fill_per_cycle 1
dram_channels 1
log2_dram_channels 0
dram_ranks 1
dram_banks 8
dram_rows 65536
dram_columns 128
dram_row_size 8
dram_size 4096
dram_pages 1048576

fetch_width 6
decode_width 6
exec_width 4
lq_width 2
sq_width 2
retire_width 4
scheduler_size 128
branch_mispredict_penalty 20
rob_size 256
lq_size 72
sq_size 56
num_instr_destinations_sparc 4
num_instr_destinations 2
num_instr_sources 4

itlb_set 16
itlb_way 8
itlb_rq_size 16
itlb_wq_size 16
itlb_pq_size 0
itlb_mshr_size 8
itlb_latency 1

dtlb_set 16
dtlb_way 4
dtlb_rq_size 16
dtlb_wq_size 16
dtlb_pq_size 0
dtlb_mshr_size 8
dtlb_latency 1

stlb_set 128
stlb_way 12
stlb_rq_size 32
stlb_wq_size 32
stlb_pq_size 0
stlb_mshr_size 16
stlb_latency 8

l1i_size 32
l1i_set 64
l1i_way 8
l1i_rq_size 64
l1i_wq_size 64
l1i_pq_size 8
l1i_mshr_size 8
l1i_latency 1

l1d_size 32
l1d_set 64
l1d_way 8
l1d_rq_size 64
l1d_wq_size 64
l1d_pq_size 8
l1d_mshr_size 16
l1d_latency 4

l2c_size 256
l2c_set 512
l2c_way 8
l2c_rq_size 32
l2c_wq_size 32
l2c_pq_size 32
l2c_mshr_size 32
l2c_latency 10

llc_size 2048
llc_set 2048
llc_way 16
llc_rq_size 32
llc_wq_size 32
llc_pq_size 32
llc_mshr_size 64
llc_latency 20

dram_channel_width 8
dram_wq_size 64
dram_rq_size 64
tRP 15
tRCD 15
tCAS 12.5
dram_dbus_turn_around_time 30
dram_write_high_wm 56
dram_write_low_wm 48
min_dram_writes_per_switch 16
dram_mtps 2400
dram_dbus_return_time 13


Heartbeat CPU  0 instructions:    1000001 cycles:     390391 heartbeat IPC: 2.56154 cumulative IPC: 2.56154 (Simulation time: 0 hr 0 min 3 sec) 
Heartbeat CPU  0 instructions:    2000000 cycles:     763075 heartbeat IPC: 2.68324 cumulative IPC: 2.62097 (Simulation time: 0 hr 0 min 5 sec) 
Heartbeat CPU  0 instructions:    3000002 cycles:    1140560 heartbeat IPC: 2.64912 cumulative IPC: 2.63029 (Simulation time: 0 hr 0 min 6 sec) 
Heartbeat CPU  0 instructions:    4000000 cycles:    1529351 heartbeat IPC: 2.57207 cumulative IPC: 2.61549 (Simulation time: 0 hr 0 min 8 sec) 
Heartbeat CPU  0 instructions:    5000001 cycles:    1902096 heartbeat IPC: 2.68280 cumulative IPC: 2.62868 (Simulation time: 0 hr 0 min 10 sec) 
Heartbeat CPU  0 instructions:    6000002 cycles:    2280418 heartbeat IPC: 2.64325 cumulative IPC: 2.63110 (Simulation time: 0 hr 0 min 11 sec) 
Heartbeat CPU  0 instructions:    7000001 cycles:    2668645 heartbeat IPC: 2.57581 cumulative IPC: 2.62305 (Simulation time: 0 hr 0 min 13 sec) 
Heartbeat CPU  0 instructions:    8000000 cycles:    3041248 heartbeat IPC: 2.68382 cumulative IPC: 2.63050 (Simulation time: 0 hr 0 min 14 sec) 
Heartbeat CPU  0 instructions:    9000003 cycles:    3419729 heartbeat IPC: 2.64215 cumulative IPC: 2.63179 (Simulation time: 0 hr 0 min 16 sec) 
Heartbeat CPU  0 instructions:   10000001 cycles:    3806616 heartbeat IPC: 2.58473 cumulative IPC: 2.62701 (Simulation time: 0 hr 0 min 18 sec) 

Warmup complete CPU  0 instructions:   10000001 cycles:    3806616 (Simulation time: 0 hr 0 min 18 sec) 

Heartbeat CPU  0 instructions:   11000003 cycles:    5888321 heartbeat IPC: 0.48038 cumulative IPC: 0.48038 (Simulation time: 0 hr 0 min 20 sec) 
Heartbeat CPU  0 instructions:   12000000 cycles:    8161197 heartbeat IPC: 0.43997 cumulative IPC: 0.45929 (Simulation time: 0 hr 0 min 22 sec) 
Heartbeat CPU  0 instructions:   13000000 cycles:   10734550 heartbeat IPC: 0.38860 cumulative IPC: 0.43303 (Simulation time: 0 hr 0 min 25 sec) 
Heartbeat CPU  0 instructions:   14000003 cycles:   12886074 heartbeat IPC: 0.46479 cumulative IPC: 0.44056 (Simulation time: 0 hr 0 min 28 sec) 
Heartbeat CPU  0 instructions:   15000001 cycles:   15131271 heartbeat IPC: 0.44539 cumulative IPC: 0.44151 (Simulation time: 0 hr 0 min 30 sec) 
Heartbeat CPU  0 instructions:   16000000 cycles:   17758636 heartbeat IPC: 0.38061 cumulative IPC: 0.43005 (Simulation time: 0 hr 0 min 33 sec) 
Heartbeat CPU  0 instructions:   17000001 cycles:   19858126 heartbeat IPC: 0.47631 cumulative IPC: 0.43610 (Simulation time: 0 hr 0 min 35 sec) 
Heartbeat CPU  0 instructions:   18000001 cycles:   22085405 heartbeat IPC: 0.44898 cumulative IPC: 0.43767 (Simulation time: 0 hr 0 min 37 sec) 
Heartbeat CPU  0 instructions:   19000000 cycles:   24691352 heartbeat IPC: 0.38374 cumulative IPC: 0.43094 (Simulation time: 0 hr 0 min 40 sec) 
Heartbeat CPU  0 instructions:   20000000 cycles:   26829399 heartbeat IPC: 0.46772 cumulative IPC: 0.43435 (Simulation time: 0 hr 0 min 43 sec) 
Heartbeat CPU  0 instructions:   21000001 cycles:   29078043 heartbeat IPC: 0.44471 cumulative IPC: 0.43527 (Simulation time: 0 hr 0 min 45 sec) 
Heartbeat CPU  0 instructions:   22000000 cycles:   31364423 heartbeat IPC: 0.43737 cumulative IPC: 0.43545 (Simulation time: 0 hr 0 min 47 sec) 
Heartbeat CPU  0 instructions:   23000000 cycles:   33211131 heartbeat IPC: 0.54150 cumulative IPC: 0.44211 (Simulation time: 0 hr 0 min 50 sec) 
Heartbeat CPU  0 instructions:   24000000 cycles:   35421402 heartbeat IPC: 0.45243 cumulative IPC: 0.44283 (Simulation time: 0 hr 0 min 52 sec) 
Heartbeat CPU  0 instructions:   25000000 cycles:   37948122 heartbeat IPC: 0.39577 cumulative IPC: 0.43935 (Simulation time: 0 hr 0 min 55 sec) 
Heartbeat CPU  0 instructions:   26000003 cycles:   39999065 heartbeat IPC: 0.48758 cumulative IPC: 0.44208 (Simulation time: 0 hr 0 min 57 sec) 
Heartbeat CPU  0 instructions:   27000002 cycles:   42193963 heartbeat IPC: 0.45560 cumulative IPC: 0.44285 (Simulation time: 0 hr 0 min 59 sec) 
Heartbeat CPU  0 instructions:   28000000 cycles:   44811405 heartbeat IPC: 0.38205 cumulative IPC: 0.43897 (Simulation time: 0 hr 1 min 2 sec) 
Heartbeat CPU  0 instructions:   29000000 cycles:   46937026 heartbeat IPC: 0.47045 cumulative IPC: 0.44052 (Simulation time: 0 hr 1 min 5 sec) 
Heartbeat CPU  0 instructions:   30000000 cycles:   49122555 heartbeat IPC: 0.45756 cumulative IPC: 0.44135 (Simulation time: 0 hr 1 min 7 sec) 
Heartbeat CPU  0 instructions:   31000003 cycles:   51627718 heartbeat IPC: 0.39918 cumulative IPC: 0.43914 (Simulation time: 0 hr 1 min 10 sec) 
Heartbeat CPU  0 instructions:   32000000 cycles:   53725933 heartbeat IPC: 0.47659 cumulative IPC: 0.44071 (Simulation time: 0 hr 1 min 12 sec) 
Heartbeat CPU  0 instructions:   33000002 cycles:   55918310 heartbeat IPC: 0.45613 cumulative IPC: 0.44136 (Simulation time: 0 hr 1 min 14 sec) 
Heartbeat CPU  0 instructions:   34000003 cycles:   58381528 heartbeat IPC: 0.40597 cumulative IPC: 0.43976 (Simulation time: 0 hr 1 min 17 sec) 
Heartbeat CPU  0 instructions:   35000003 cycles:   60545910 heartbeat IPC: 0.46203 cumulative IPC: 0.44061 (Simulation time: 0 hr 1 min 19 sec) 
Heartbeat CPU  0 instructions:   36000000 cycles:   62687690 heartbeat IPC: 0.46690 cumulative IPC: 0.44157 (Simulation time: 0 hr 1 min 22 sec) 
Heartbeat CPU  0 instructions:   37000003 cycles:   64974934 heartbeat IPC: 0.43721 cumulative IPC: 0.44140 (Simulation time: 0 hr 1 min 24 sec) 
Heartbeat CPU  0 instructions:   38000000 cycles:   67114956 heartbeat IPC: 0.46728 cumulative IPC: 0.44228 (Simulation time: 0 hr 1 min 27 sec) 
Heartbeat CPU  0 instructions:   39000000 cycles:   69213856 heartbeat IPC: 0.47644 cumulative IPC: 0.44338 (Simulation time: 0 hr 1 min 29 sec) 
Heartbeat CPU  0 instructions:   40000000 cycles:   71482033 heartbeat IPC: 0.44088 cumulative IPC: 0.44329 (Simulation time: 0 hr 1 min 31 sec) 
Heartbeat CPU  0 instructions:   41000003 cycles:   73742953 heartbeat IPC: 0.44230 cumulative IPC: 0.44326 (Simulation time: 0 hr 1 min 34 sec) 
Heartbeat CPU  0 instructions:   42000003 cycles:   75746026 heartbeat IPC: 0.49923 cumulative IPC: 0.44482 (Simulation time: 0 hr 1 min 36 sec) 
Heartbeat CPU  0 instructions:   43000003 cycles:   77976362 heartbeat IPC: 0.44836 cumulative IPC: 0.44493 (Simulation time: 0 hr 1 min 39 sec) 
Heartbeat CPU  0 instructions:   44000000 cycles:   80292060 heartbeat IPC: 0.43183 cumulative IPC: 0.44453 (Simulation time: 0 hr 1 min 41 sec) 
Heartbeat CPU  0 instructions:   45000002 cycles:   82364511 heartbeat IPC: 0.48252 cumulative IPC: 0.44553 (Simulation time: 0 hr 1 min 43 sec) 
Heartbeat CPU  0 instructions:   46000001 cycles:   84581287 heartbeat IPC: 0.45111 cumulative IPC: 0.44568 (Simulation time: 0 hr 1 min 46 sec) 
Heartbeat CPU  0 instructions:   47000003 cycles:   86865359 heartbeat IPC: 0.43782 cumulative IPC: 0.44547 (Simulation time: 0 hr 1 min 48 sec) 
Heartbeat CPU  0 instructions:   48000000 cycles:   88936877 heartbeat IPC: 0.48274 cumulative IPC: 0.44637 (Simulation time: 0 hr 1 min 51 sec) 
Heartbeat CPU  0 instructions:   49000000 cycles:   91137508 heartbeat IPC: 0.45442 cumulative IPC: 0.44658 (Simulation time: 0 hr 1 min 53 sec) 
Heartbeat CPU  0 instructions:   50000003 cycles:   93291717 heartbeat IPC: 0.46421 cumulative IPC: 0.44700 (Simulation time: 0 hr 1 min 55 sec) 
Heartbeat CPU  0 instructions:   51000000 cycles:   95425426 heartbeat IPC: 0.46867 cumulative IPC: 0.44751 (Simulation time: 0 hr 1 min 58 sec) 
Heartbeat CPU  0 instructions:   52000000 cycles:   97531983 heartbeat IPC: 0.47471 cumulative IPC: 0.44812 (Simulation time: 0 hr 2 min 0 sec) 
Heartbeat CPU  0 instructions:   53000001 cycles:   99736055 heartbeat IPC: 0.45371 cumulative IPC: 0.44825 (Simulation time: 0 hr 2 min 3 sec) 
Heartbeat CPU  0 instructions:   54000000 cycles:  101902953 heartbeat IPC: 0.46149 cumulative IPC: 0.44854 (Simulation time: 0 hr 2 min 5 sec) 
Heartbeat CPU  0 instructions:   55000000 cycles:  104022994 heartbeat IPC: 0.47169 cumulative IPC: 0.44903 (Simulation time: 0 hr 2 min 7 sec) 
Heartbeat CPU  0 instructions:   56000000 cycles:  106138757 heartbeat IPC: 0.47264 cumulative IPC: 0.44952 (Simulation time: 0 hr 2 min 10 sec) 
Heartbeat CPU  0 instructions:   57000003 cycles:  108229268 heartbeat IPC: 0.47835 cumulative IPC: 0.45009 (Simulation time: 0 hr 2 min 12 sec) 
Heartbeat CPU  0 instructions:   58000000 cycles:  110270440 heartbeat IPC: 0.48991 cumulative IPC: 0.45086 (Simulation time: 0 hr 2 min 14 sec) 
Heartbeat CPU  0 instructions:   59000002 cycles:  112490688 heartbeat IPC: 0.45040 cumulative IPC: 0.45085 (Simulation time: 0 hr 2 min 17 sec) 
Heartbeat CPU  0 instructions:   60000000 cycles:  114596844 heartbeat IPC: 0.47480 cumulative IPC: 0.45130 (Simulation time: 0 hr 2 min 19 sec) 
Finished CPU 0 instructions: 50000000 cycles: 110790237 cumulative IPC: 0.45130 (Simulation time: 0 hr 2 min 19 sec) 

ChampSim completed all CPUs

[ROI Statistics]
Core_0_instructions 50000000
Core_0_cycles 110790237
Core_0_IPC 0.45130

Core_0_branch_prediction_accuracy 99.43496
Core_0_branch_MPKI 0.06736
Core_0_average_ROB_occupancy_at_mispredict 223.34709

Core_0_L1D_total_access 8469765
Core_0_L1D_total_hit 5871986
Core_0_L1D_total_miss 2597779
Core_0_L1D_loads 3239692
Core_0_L1D_load_hit 2845670
Core_0_L1D_load_miss 394022
Core_0_L1D_RFOs 5230073
Core_0_L1D_RFO_hit 3026316
Core_0_L1D_RFO_miss 2203757
Core_0_L1D_prefetches 0
Core_0_L1D_prefetch_hit 0
Core_0_L1D_prefetch_miss 0
Core_0_L1D_writebacks 0
Core_0_L1D_writeback_hit 0
Core_0_L1D_writeback_miss 0
Core_0_L1D_prefetch_requested 0
Core_0_L1D_prefetch_dropped 0
Core_0_L1D_prefetch_issued 0
Core_0_L1D_prefetch_filled 0
Core_0_L1D_prefetch_useful 0
Core_0_L1D_prefetch_useless 0
Core_0_L1D_prefetch_late 0
Core_0_L1D_average_miss_latency 308.02965

Core_0_L1D_rq_access 8755139
Core_0_L1D_rq_forward 0
Core_0_L1D_rq_merged 5294412
Core_0_L1D_rq_to_cache 3457588
Core_0_L1D_rq_full 0

Core_0_L1D_wq_access 5240596
Core_0_L1D_wq_forward 3139
Core_0_L1D_wq_merged 979
Core_0_L1D_wq_to_cache 5239617
Core_0_L1D_wq_full 0

Core_0_L1D_pq_access 0
Core_0_L1D_pq_forward 0
Core_0_L1D_pq_merged 0
Core_0_L1D_pq_to_cache 0
Core_0_L1D_pq_full 0

Core_0_L1D_acc_epochs 109532
Core_0_L1D_acc_level_0 109532
Core_0_L1D_acc_level_1 0
Core_0_L1D_acc_level_2 0
Core_0_L1D_acc_level_3 0
Core_0_L1D_acc_level_4 0
Core_0_L1D_acc_level_5 0
Core_0_L1D_acc_level_6 0
Core_0_L1D_acc_level_7 0
Core_0_L1D_acc_level_8 0
Core_0_L1D_acc_level_9 0

Core_0_L1I_total_access 11906873
Core_0_L1I_total_hit 11906873
Core_0_L1I_total_miss 0
Core_0_L1I_loads 11906873
Core_0_L1I_load_hit 11906873
Core_0_L1I_load_miss 0
Core_0_L1I_RFOs 0
Core_0_L1I_RFO_hit 0
Core_0_L1I_RFO_miss 0
Core_0_L1I_prefetches 0
Core_0_L1I_prefetch_hit 0
Core_0_L1I_prefetch_miss 0
Core_0_L1I_writebacks 0
Core_0_L1I_writeback_hit 0
Core_0_L1I_writeback_miss 0
Core_0_L1I_prefetch_requested 0
Core_0_L1I_prefetch_dropped 0
Core_0_L1I_prefetch_issued 0
Core_0_L1I_prefetch_filled 0
Core_0_L1I_prefetch_useful 0
Core_0_L1I_prefetch_useless 0
Core_0_L1I_prefetch_late 0
Core_0_L1I_average_miss_latency -nan

Core_0_L1I_rq_access 50000007
Core_0_L1I_rq_forward 0
Core_0_L1I_rq_merged 38093134
Core_0_L1I_rq_to_cache 11906873
Core_0_L1I_rq_full 0

Core_0_L1I_wq_access 0
Core_0_L1I_wq_forward 0
Core_0_L1I_wq_merged 0
Core_0_L1I_wq_to_cache 0
Core_0_L1I_wq_full 0

Core_0_L1I_pq_access 0
Core_0_L1I_pq_forward 0
Core_0_L1I_pq_merged 0
Core_0_L1I_pq_to_cache 0
Core_0_L1I_pq_full 0

Core_0_L1I_acc_epochs 109532
Core_0_L1I_acc_level_0 109532
Core_0_L1I_acc_level_1 0
Core_0_L1I_acc_level_2 0
Core_0_L1I_acc_level_3 0
Core_0_L1I_acc_level_4 0
Core_0_L1I_acc_level_5 0
Core_0_L1I_acc_level_6 0
Core_0_L1I_acc_level_7 0
Core_0_L1I_acc_level_8 0
Core_0_L1I_acc_level_9 0

Core_0_L2C_total_access 4801534
Core_0_L2C_total_hit 3215738
Core_0_L2C_total_miss 1585796
Core_0_L2C_loads 394022
Core_0_L2C_load_hit 498
Core_0_L2C_load_miss 393524
Core_0_L2C_RFOs 2203755
Core_0_L2C_RFO_hit 1011585
Core_0_L2C_RFO_miss 1192170
Core_0_L2C_prefetches 0
Core_0_L2C_prefetch_hit 0
Core_0_L2C_prefetch_miss 0
Core_0_L2C_writebacks 2203757
Core_0_L2C_writeback_hit 2203655
Core_0_L2C_writeback_miss 102
Core_0_L2C_prefetch_requested 0
Core_0_L2C_prefetch_dropped 0
Core_0_L2C_prefetch_issued 0
Core_0_L2C_prefetch_filled 0
Core_0_L2C_prefetch_useful 0
Core_0_L2C_prefetch_useless 0
Core_0_L2C_prefetch_late 0
Core_0_L2C_average_miss_latency 478.07217

Core_0_L2C_rq_access 2597786
Core_0_L2C_rq_forward 0
Core_0_L2C_rq_merged 0
Core_0_L2C_rq_to_cache 2597782
Core_0_L2C_rq_full 0

Core_0_L2C_wq_access 2203757
Core_0_L2C_wq_forward 4
Core_0_L2C_wq_merged 0
Core_0_L2C_wq_to_cache 2203757
Core_0_L2C_wq_full 0

Core_0_L2C_pq_access 0
Core_0_L2C_pq_forward 0
Core_0_L2C_pq_merged 0
Core_0_L2C_pq_to_cache 0
Core_0_L2C_pq_full 0

Core_0_L2C_acc_epochs 109532
Core_0_L2C_acc_level_0 109532
Core_0_L2C_acc_level_1 0
Core_0_L2C_acc_level_2 0
Core_0_L2C_acc_level_3 0
Core_0_L2C_acc_level_4 0
Core_0_L2C_acc_level_5 0
Core_0_L2C_acc_level_6 0
Core_0_L2C_acc_level_7 0
Core_0_L2C_acc_level_8 0
Core_0_L2C_acc_level_9 0

Core_0_LLC_total_access 2777108
Core_0_LLC_total_hit 99472
Core_0_LLC_total_miss 2677636
Core_0_LLC_loads 393524
Core_0_LLC_load_hit 91
Core_0_LLC_load_miss 393433
Core_0_LLC_RFOs 1192170
Core_0_LLC_RFO_hit 32735
Core_0_LLC_RFO_miss 1159435
Core_0_LLC_prefetches 0
Core_0_LLC_prefetch_hit 0
Core_0_LLC_prefetch_miss 0
Core_0_LLC_writebacks 1191414
Core_0_LLC_writeback_hit 66646
Core_0_LLC_writeback_miss 1124768
Core_0_LLC_prefetch_requested 0
Core_0_LLC_prefetch_dropped 0
Core_0_LLC_prefetch_issued 0
Core_0_LLC_prefetch_filled 0
Core_0_LLC_prefetch_useful 0
Core_0_LLC_prefetch_useless 0
Core_0_LLC_prefetch_late 0
Core_0_LLC_average_miss_latency 264.84062

Core_0_LLC_rq_access 1585696
Core_0_LLC_rq_forward 0
Core_0_LLC_rq_merged 0
Core_0_LLC_rq_to_cache 1585696
Core_0_LLC_rq_full 0

Core_0_LLC_wq_access 1191415
Core_0_LLC_wq_forward 0
Core_0_LLC_wq_merged 0
Core_0_LLC_wq_to_cache 1191415
Core_0_LLC_wq_full 0

Core_0_LLC_pq_access 0
Core_0_LLC_pq_forward 0
Core_0_LLC_pq_merged 0
Core_0_LLC_pq_to_cache 0
Core_0_LLC_pq_full 0

Core_0_LLC_acc_epochs 111911
Core_0_LLC_acc_level_0 111911
Core_0_LLC_acc_level_1 0
Core_0_LLC_acc_level_2 0
Core_0_LLC_acc_level_3 0
Core_0_LLC_acc_level_4 0
Core_0_LLC_acc_level_5 0
Core_0_LLC_acc_level_6 0
Core_0_LLC_acc_level_7 0
Core_0_LLC_acc_level_8 0
Core_0_LLC_acc_level_9 0

Core_0_major_page_fault 0
Core_0_minor_page_fault 15768

Channel_0_RQ_row_buffer_hit 166881
Channel_0_RQ_row_buffer_miss 1385879
Channel_0_WQ_row_buffer_hit 307253
Channel_0_WQ_row_buffer_miss 850782
Channel_0_WQ_full 0
Channel_0_dbus_congested 1633580

avg_congested_cycle 11

DRAM_bw_pochs 447644
DRAM_bw_level_0 157650
DRAM_bw_level_1 153630
DRAM_bw_level_2 123566
DRAM_bw_level_3 12798
