*************************************************
   ChampSim Multicore Out-of-Order Simulator
   Last compiled: Apr  3 2025 20:54:34
*************************************************
parsing config file: /home/zir/Pythia/config/pythia.ini

trace_0 /home/zir/ChampSim/ML-DPC/ChampSimTraces/spec17/623.xalancbmk-s5.trace.xz
adding L2C_PREFETCHER: Scooby
Initialize SHIP state
warmup_instructions 10000000
simulation_instructions 50000000
champsim_seed 168
measure_ipc 0
measure_ipc_epoch 1000
measure_dram_bw 1
measure_dram_bw_epoch 256
measure_cache_acc 1
measure_cache_acc_epoch 1024
l1d_perfect 0
l2c_perfect 0
llc_perfect 0
l1d_semi_perfect 0
l2c_semi_perfect 0
llc_semi_perfect 0
semi_perfect_cache_page_buffer_size 64

num_cpus 1
cpu_freq 4000
dram_io_freq 2400
page_size 4096
block_size 64
max_read_per_cycle 8
max_fill_per_cycle 1
dram_channels 1
log2_dram_channels 0
dram_ranks 1
dram_banks 8
dram_rows 65536
dram_columns 128
dram_row_size 8
dram_size 4096
dram_pages 1048576

fetch_width 6
decode_width 6
exec_width 4
lq_width 2
sq_width 2
retire_width 4
scheduler_size 128
branch_mispredict_penalty 20
rob_size 256
lq_size 72
sq_size 56
num_instr_destinations_sparc 4
num_instr_destinations 2
num_instr_sources 4

itlb_set 16
itlb_way 8
itlb_rq_size 16
itlb_wq_size 16
itlb_pq_size 0
itlb_mshr_size 8
itlb_latency 1

dtlb_set 16
dtlb_way 4
dtlb_rq_size 16
dtlb_wq_size 16
dtlb_pq_size 0
dtlb_mshr_size 8
dtlb_latency 1

stlb_set 128
stlb_way 12
stlb_rq_size 32
stlb_wq_size 32
stlb_pq_size 0
stlb_mshr_size 16
stlb_latency 8

l1i_size 32
l1i_set 64
l1i_way 8
l1i_rq_size 64
l1i_wq_size 64
l1i_pq_size 8
l1i_mshr_size 8
l1i_latency 1

l1d_size 32
l1d_set 64
l1d_way 8
l1d_rq_size 64
l1d_wq_size 64
l1d_pq_size 8
l1d_mshr_size 16
l1d_latency 4

l2c_size 256
l2c_set 512
l2c_way 8
l2c_rq_size 32
l2c_wq_size 32
l2c_pq_size 32
l2c_mshr_size 32
l2c_latency 10

llc_size 2048
llc_set 2048
llc_way 16
llc_rq_size 32
llc_wq_size 32
llc_pq_size 32
llc_mshr_size 64
llc_latency 20

dram_channel_width 8
dram_wq_size 64
dram_rq_size 64
tRP 15
tRCD 15
tCAS 12.5
dram_dbus_turn_around_time 30
dram_write_high_wm 56
dram_write_low_wm 48
min_dram_writes_per_switch 16
dram_mtps 2400
dram_dbus_return_time 13

scooby_alpha 0.0065088
scooby_gamma 0.556301
scooby_epsilon 0.00182284
scooby_state_num_bits 10
scooby_max_states 1024
scooby_seed 200
scooby_policy EGreedy
scooby_learning_type SARSA
scooby_actions 1,3,4,5,10,11,12,22,23,30,32,-1,-3,-6,0,
scooby_max_actions 15
scooby_pt_size 256
scooby_st_size 64
scooby_max_pcs 5
scooby_max_offsets 5
scooby_max_deltas 5
scooby_reward_none -4
scooby_reward_incorrect -8
scooby_reward_correct_untimely 12
scooby_reward_correct_timely 20
scooby_brain_zero_init 0
scooby_enable_reward_all 0
scooby_enable_track_multiple 0
scooby_enable_reward_out_of_bounds 1
scooby_reward_out_of_bounds -12
scooby_state_type 1
scooby_state_hash_type 11
scooby_access_debug 0
scooby_print_access_debug 0
scooby_print_access_debug_pc deadbeef
scooby_print_access_debug_pc_count 0
scooby_print_trace 0
scooby_enable_state_action_stats 1
scooby_enable_reward_tracker_hit 0
scooby_reward_tracker_hit -2
scooby_enable_featurewise_engine 1
scooby_pref_degree 1
scooby_enable_dyn_degree 1
scooby_max_to_avg_q_thresholds 0.5,1,2,
scooby_dyn_degrees 1,2,4,4,
scooby_multi_deg_select_type 2
scooby_last_pref_offset_conf_thresholds 1,3,8,
scooby_dyn_degrees_type2 1,2,4,6,
scooby_action_tracker_size 2
scooby_high_bw_thresh 4
scooby_enable_hbw_reward 1
scooby_reward_hbw_correct_timely 20
scooby_reward_hbw_correct_untimely 12
scooby_reward_hbw_incorrect -14
scooby_reward_hbw_none -2
scooby_reward_hbw_out_of_bounds -12
scooby_reward_hbw_tracker_hit -2
scooby_last_pref_offset_conf_thresholds_hbw 1,3,8,
scooby_dyn_degrees_type2_hbw 1,2,4,6,

le_enable_trace 0
le_trace_interval 0
le_trace_file_name 
le_trace_state 0
le_enable_score_plot 0
le_plot_file_name 
le_plot_actions 
le_enable_action_trace 0
le_action_trace_interval 0
le_action_trace_name 
le_enable_action_plot 0

le_featurewise_active_features PC, PC_Delta
le_featurewise_num_tilings 3,3,
le_featurewise_num_tiles 128,128,
le_featurewise_hash_types 2,2,
le_featurewise_enable_tiling_offset 1,1,
le_featurewise_max_q_thresh 0.5
le_featurewise_enable_action_fallback 1
le_featurewise_feature_weights 1,1,
le_featurewise_enable_dynamic_weight 0
le_featurewise_weight_gradient 0.001
le_featurewise_disable_adjust_weight_all_features_align 1
le_featurewise_selective_update 0
le_featurewise_pooling_type 2
le_featurewise_enable_dyn_action_fallback 1
le_featurewise_bw_acc_check_level 1
le_featurewise_acc_thresh 2
le_featurewise_enable_trace 0
le_featurewise_trace_feature_type 0
le_featurewise_trace_feature 
le_featurewise_trace_interval 0
le_featurewise_trace_record_count 0
le_featurewise_trace_file_name 
le_featurewise_enable_score_plot 0
le_featurewise_plot_actions 
le_featurewise_plot_file_name 


Heartbeat CPU  0 instructions:    1000000 cycles:     667138 heartbeat IPC: 1.49894 cumulative IPC: 1.49894 (Simulation time: 0 hr 0 min 2 sec) 
Heartbeat CPU  0 instructions:    2000000 cycles:    1299510 heartbeat IPC: 1.58135 cumulative IPC: 1.53904 (Simulation time: 0 hr 0 min 4 sec) 
Heartbeat CPU  0 instructions:    3000000 cycles:    1922862 heartbeat IPC: 1.60423 cumulative IPC: 1.56017 (Simulation time: 0 hr 0 min 6 sec) 
Heartbeat CPU  0 instructions:    4000000 cycles:    2547900 heartbeat IPC: 1.59990 cumulative IPC: 1.56992 (Simulation time: 0 hr 0 min 8 sec) 
Heartbeat CPU  0 instructions:    5000000 cycles:    3166974 heartbeat IPC: 1.61532 cumulative IPC: 1.57879 (Simulation time: 0 hr 0 min 10 sec) 
Heartbeat CPU  0 instructions:    6000002 cycles:    3785954 heartbeat IPC: 1.61556 cumulative IPC: 1.58481 (Simulation time: 0 hr 0 min 12 sec) 
Heartbeat CPU  0 instructions:    7000003 cycles:    4405532 heartbeat IPC: 1.61400 cumulative IPC: 1.58891 (Simulation time: 0 hr 0 min 14 sec) 
Heartbeat CPU  0 instructions:    8000000 cycles:    5026060 heartbeat IPC: 1.61153 cumulative IPC: 1.59170 (Simulation time: 0 hr 0 min 16 sec) 
Heartbeat CPU  0 instructions:    9000002 cycles:    5530323 heartbeat IPC: 1.98310 cumulative IPC: 1.62739 (Simulation time: 0 hr 0 min 18 sec) 
Heartbeat CPU  0 instructions:   10000001 cycles:    6050571 heartbeat IPC: 1.92216 cumulative IPC: 1.65274 (Simulation time: 0 hr 0 min 19 sec) 

Warmup complete CPU  0 instructions:   10000001 cycles:    6050571 (Simulation time: 0 hr 0 min 19 sec) 

Heartbeat CPU  0 instructions:   11000002 cycles:    7984655 heartbeat IPC: 0.51704 cumulative IPC: 0.51704 (Simulation time: 0 hr 0 min 22 sec) 
Heartbeat CPU  0 instructions:   12000000 cycles:    9938072 heartbeat IPC: 0.51192 cumulative IPC: 0.51447 (Simulation time: 0 hr 0 min 24 sec) 
Heartbeat CPU  0 instructions:   13000000 cycles:   11935139 heartbeat IPC: 0.50073 cumulative IPC: 0.50981 (Simulation time: 0 hr 0 min 27 sec) 
Heartbeat CPU  0 instructions:   14000000 cycles:   13999068 heartbeat IPC: 0.48451 cumulative IPC: 0.50324 (Simulation time: 0 hr 0 min 29 sec) 
Heartbeat CPU  0 instructions:   15000003 cycles:   16126134 heartbeat IPC: 0.47013 cumulative IPC: 0.49625 (Simulation time: 0 hr 0 min 32 sec) 
Heartbeat CPU  0 instructions:   16000000 cycles:   18333461 heartbeat IPC: 0.45304 cumulative IPC: 0.48848 (Simulation time: 0 hr 0 min 34 sec) 
Heartbeat CPU  0 instructions:   17000000 cycles:   20619146 heartbeat IPC: 0.43751 cumulative IPC: 0.48049 (Simulation time: 0 hr 0 min 37 sec) 
Heartbeat CPU  0 instructions:   18000003 cycles:   23003368 heartbeat IPC: 0.41943 cumulative IPC: 0.47190 (Simulation time: 0 hr 0 min 39 sec) 
Heartbeat CPU  0 instructions:   19000000 cycles:   25514920 heartbeat IPC: 0.39816 cumulative IPC: 0.46238 (Simulation time: 0 hr 0 min 42 sec) 
Heartbeat CPU  0 instructions:   20000000 cycles:   28223542 heartbeat IPC: 0.36919 cumulative IPC: 0.45100 (Simulation time: 0 hr 0 min 45 sec) 
Heartbeat CPU  0 instructions:   21000000 cycles:   31042092 heartbeat IPC: 0.35479 cumulative IPC: 0.44015 (Simulation time: 0 hr 0 min 48 sec) 
Heartbeat CPU  0 instructions:   22000002 cycles:   34129991 heartbeat IPC: 0.32385 cumulative IPC: 0.42736 (Simulation time: 0 hr 0 min 51 sec) 
Heartbeat CPU  0 instructions:   23000003 cycles:   37612560 heartbeat IPC: 0.28714 cumulative IPC: 0.41189 (Simulation time: 0 hr 0 min 54 sec) 
Heartbeat CPU  0 instructions:   24000000 cycles:   41471597 heartbeat IPC: 0.25913 cumulative IPC: 0.39525 (Simulation time: 0 hr 0 min 57 sec) 
Heartbeat CPU  0 instructions:   25000002 cycles:   44906825 heartbeat IPC: 0.29110 cumulative IPC: 0.38604 (Simulation time: 0 hr 1 min 0 sec) 
Heartbeat CPU  0 instructions:   26000000 cycles:   48227165 heartbeat IPC: 0.30117 cumulative IPC: 0.37936 (Simulation time: 0 hr 1 min 3 sec) 
Heartbeat CPU  0 instructions:   27000002 cycles:   51490750 heartbeat IPC: 0.30641 cumulative IPC: 0.37412 (Simulation time: 0 hr 1 min 6 sec) 
Heartbeat CPU  0 instructions:   28000000 cycles:   54713755 heartbeat IPC: 0.31027 cumulative IPC: 0.36989 (Simulation time: 0 hr 1 min 9 sec) 
Heartbeat CPU  0 instructions:   29000003 cycles:   57853920 heartbeat IPC: 0.31846 cumulative IPC: 0.36677 (Simulation time: 0 hr 1 min 12 sec) 
Heartbeat CPU  0 instructions:   30000001 cycles:   60991773 heartbeat IPC: 0.31869 cumulative IPC: 0.36403 (Simulation time: 0 hr 1 min 16 sec) 
Heartbeat CPU  0 instructions:   31000003 cycles:   64074183 heartbeat IPC: 0.32442 cumulative IPC: 0.36192 (Simulation time: 0 hr 1 min 18 sec) 
Heartbeat CPU  0 instructions:   32000000 cycles:   67128018 heartbeat IPC: 0.32746 cumulative IPC: 0.36020 (Simulation time: 0 hr 1 min 21 sec) 
Heartbeat CPU  0 instructions:   33000001 cycles:   70116193 heartbeat IPC: 0.33465 cumulative IPC: 0.35901 (Simulation time: 0 hr 1 min 24 sec) 
Heartbeat CPU  0 instructions:   34000001 cycles:   73123256 heartbeat IPC: 0.33255 cumulative IPC: 0.35782 (Simulation time: 0 hr 1 min 27 sec) 
Heartbeat CPU  0 instructions:   35000000 cycles:   76067703 heartbeat IPC: 0.33962 cumulative IPC: 0.35706 (Simulation time: 0 hr 1 min 30 sec) 
Heartbeat CPU  0 instructions:   36000000 cycles:   79010298 heartbeat IPC: 0.33984 cumulative IPC: 0.35636 (Simulation time: 0 hr 1 min 33 sec) 
Heartbeat CPU  0 instructions:   37000001 cycles:   81919983 heartbeat IPC: 0.34368 cumulative IPC: 0.35587 (Simulation time: 0 hr 1 min 36 sec) 
Heartbeat CPU  0 instructions:   38000000 cycles:   84789425 heartbeat IPC: 0.34850 cumulative IPC: 0.35561 (Simulation time: 0 hr 1 min 39 sec) 
Heartbeat CPU  0 instructions:   39000002 cycles:   87653648 heartbeat IPC: 0.34914 cumulative IPC: 0.35538 (Simulation time: 0 hr 1 min 42 sec) 
Heartbeat CPU  0 instructions:   40000000 cycles:   90504720 heartbeat IPC: 0.35074 cumulative IPC: 0.35522 (Simulation time: 0 hr 1 min 45 sec) 
Heartbeat CPU  0 instructions:   41000001 cycles:   93319770 heartbeat IPC: 0.35523 cumulative IPC: 0.35522 (Simulation time: 0 hr 1 min 48 sec) 
Heartbeat CPU  0 instructions:   42000001 cycles:   96118383 heartbeat IPC: 0.35732 cumulative IPC: 0.35529 (Simulation time: 0 hr 1 min 51 sec) 
Heartbeat CPU  0 instructions:   43000000 cycles:   98903203 heartbeat IPC: 0.35909 cumulative IPC: 0.35540 (Simulation time: 0 hr 1 min 53 sec) 
Heartbeat CPU  0 instructions:   44000000 cycles:  101675958 heartbeat IPC: 0.36065 cumulative IPC: 0.35555 (Simulation time: 0 hr 1 min 56 sec) 
Heartbeat CPU  0 instructions:   45000000 cycles:  104417979 heartbeat IPC: 0.36469 cumulative IPC: 0.35581 (Simulation time: 0 hr 1 min 59 sec) 
Heartbeat CPU  0 instructions:   46000000 cycles:  107148518 heartbeat IPC: 0.36623 cumulative IPC: 0.35609 (Simulation time: 0 hr 2 min 2 sec) 
Heartbeat CPU  0 instructions:   47000000 cycles:  109869375 heartbeat IPC: 0.36753 cumulative IPC: 0.35639 (Simulation time: 0 hr 2 min 5 sec) 
Heartbeat CPU  0 instructions:   48000000 cycles:  112571816 heartbeat IPC: 0.37004 cumulative IPC: 0.35674 (Simulation time: 0 hr 2 min 8 sec) 
Heartbeat CPU  0 instructions:   49000000 cycles:  115257034 heartbeat IPC: 0.37241 cumulative IPC: 0.35712 (Simulation time: 0 hr 2 min 11 sec) 
Heartbeat CPU  0 instructions:   50000001 cycles:  117894149 heartbeat IPC: 0.37920 cumulative IPC: 0.35764 (Simulation time: 0 hr 2 min 14 sec) 
Heartbeat CPU  0 instructions:   51000003 cycles:  120580983 heartbeat IPC: 0.37219 cumulative IPC: 0.35798 (Simulation time: 0 hr 2 min 16 sec) 
Heartbeat CPU  0 instructions:   52000000 cycles:  122755192 heartbeat IPC: 0.45994 cumulative IPC: 0.35988 (Simulation time: 0 hr 2 min 19 sec) 
Heartbeat CPU  0 instructions:   53000003 cycles:  124873552 heartbeat IPC: 0.47206 cumulative IPC: 0.36188 (Simulation time: 0 hr 2 min 21 sec) 
Heartbeat CPU  0 instructions:   54000001 cycles:  126651254 heartbeat IPC: 0.56252 cumulative IPC: 0.36484 (Simulation time: 0 hr 2 min 24 sec) 
Heartbeat CPU  0 instructions:   55000000 cycles:  128502067 heartbeat IPC: 0.54030 cumulative IPC: 0.36749 (Simulation time: 0 hr 2 min 26 sec) 
Heartbeat CPU  0 instructions:   56000000 cycles:  130298133 heartbeat IPC: 0.55677 cumulative IPC: 0.37023 (Simulation time: 0 hr 2 min 29 sec) 
Heartbeat CPU  0 instructions:   57000001 cycles:  132195149 heartbeat IPC: 0.52714 cumulative IPC: 0.37259 (Simulation time: 0 hr 2 min 31 sec) 
Heartbeat CPU  0 instructions:   58000000 cycles:  134135661 heartbeat IPC: 0.51533 cumulative IPC: 0.37475 (Simulation time: 0 hr 2 min 33 sec) 
Heartbeat CPU  0 instructions:   59000003 cycles:  136092847 heartbeat IPC: 0.51094 cumulative IPC: 0.37680 (Simulation time: 0 hr 2 min 36 sec) 
Heartbeat CPU  0 instructions:   60000000 cycles:  138103745 heartbeat IPC: 0.49729 cumulative IPC: 0.37864 (Simulation time: 0 hr 2 min 38 sec) 
Finished CPU 0 instructions: 50000001 cycles: 132053182 cumulative IPC: 0.37864 (Simulation time: 0 hr 2 min 38 sec) 

ChampSim completed all CPUs

[ROI Statistics]
Core_0_instructions 50000001
Core_0_cycles 132053182
Core_0_IPC 0.37864

Core_0_branch_prediction_accuracy 99.34267
Core_0_branch_MPKI 1.69698
Core_0_average_ROB_occupancy_at_mispredict 126.37678

Core_0_L1D_total_access 11849529
Core_0_L1D_total_hit 9350607
Core_0_L1D_total_miss 2498922
Core_0_L1D_loads 8558732
Core_0_L1D_load_hit 6139079
Core_0_L1D_load_miss 2419653
Core_0_L1D_RFOs 3290797
Core_0_L1D_RFO_hit 3211528
Core_0_L1D_RFO_miss 79269
Core_0_L1D_prefetches 0
Core_0_L1D_prefetch_hit 0
Core_0_L1D_prefetch_miss 0
Core_0_L1D_writebacks 0
Core_0_L1D_writeback_hit 0
Core_0_L1D_writeback_miss 0
Core_0_L1D_prefetch_requested 0
Core_0_L1D_prefetch_dropped 0
Core_0_L1D_prefetch_issued 0
Core_0_L1D_prefetch_filled 0
Core_0_L1D_prefetch_useful 0
Core_0_L1D_prefetch_useless 0
Core_0_L1D_prefetch_late 0
Core_0_L1D_average_miss_latency 37.47427

Core_0_L1D_rq_access 15458751
Core_0_L1D_rq_forward 0
Core_0_L1D_rq_merged 6714682
Core_0_L1D_rq_to_cache 8743101
Core_0_L1D_rq_full 0

Core_0_L1D_wq_access 3508935
Core_0_L1D_wq_forward 968
Core_0_L1D_wq_merged 28871
Core_0_L1D_wq_to_cache 3480064
Core_0_L1D_wq_full 3686

Core_0_L1D_pq_access 0
Core_0_L1D_pq_forward 0
Core_0_L1D_pq_merged 0
Core_0_L1D_pq_to_cache 0
Core_0_L1D_pq_full 0

Core_0_L1D_acc_epochs 128072
Core_0_L1D_acc_level_0 128072
Core_0_L1D_acc_level_1 0
Core_0_L1D_acc_level_2 0
Core_0_L1D_acc_level_3 0
Core_0_L1D_acc_level_4 0
Core_0_L1D_acc_level_5 0
Core_0_L1D_acc_level_6 0
Core_0_L1D_acc_level_7 0
Core_0_L1D_acc_level_8 0
Core_0_L1D_acc_level_9 0

Core_0_L1I_total_access 21191791
Core_0_L1I_total_hit 21073021
Core_0_L1I_total_miss 118770
Core_0_L1I_loads 21191791
Core_0_L1I_load_hit 21073021
Core_0_L1I_load_miss 118770
Core_0_L1I_RFOs 0
Core_0_L1I_RFO_hit 0
Core_0_L1I_RFO_miss 0
Core_0_L1I_prefetches 0
Core_0_L1I_prefetch_hit 0
Core_0_L1I_prefetch_miss 0
Core_0_L1I_writebacks 0
Core_0_L1I_writeback_hit 0
Core_0_L1I_writeback_miss 0
Core_0_L1I_prefetch_requested 0
Core_0_L1I_prefetch_dropped 0
Core_0_L1I_prefetch_issued 0
Core_0_L1I_prefetch_filled 0
Core_0_L1I_prefetch_useful 0
Core_0_L1I_prefetch_useless 0
Core_0_L1I_prefetch_late 0
Core_0_L1I_average_miss_latency 17.88553

Core_0_L1I_rq_access 50000006
Core_0_L1I_rq_forward 0
Core_0_L1I_rq_merged 28709508
Core_0_L1I_rq_to_cache 21290498
Core_0_L1I_rq_full 0

Core_0_L1I_wq_access 0
Core_0_L1I_wq_forward 0
Core_0_L1I_wq_merged 0
Core_0_L1I_wq_to_cache 0
Core_0_L1I_wq_full 0

Core_0_L1I_pq_access 0
Core_0_L1I_pq_forward 0
Core_0_L1I_pq_merged 0
Core_0_L1I_pq_to_cache 0
Core_0_L1I_pq_full 0

Core_0_L1I_acc_epochs 128072
Core_0_L1I_acc_level_0 128072
Core_0_L1I_acc_level_1 0
Core_0_L1I_acc_level_2 0
Core_0_L1I_acc_level_3 0
Core_0_L1I_acc_level_4 0
Core_0_L1I_acc_level_5 0
Core_0_L1I_acc_level_6 0
Core_0_L1I_acc_level_7 0
Core_0_L1I_acc_level_8 0
Core_0_L1I_acc_level_9 0

Core_0_L2C_total_access 5327881
Core_0_L2C_total_hit 2716196
Core_0_L2C_total_miss 2611685
Core_0_L2C_loads 2538419
Core_0_L2C_load_hit 1136632
Core_0_L2C_load_miss 1401787
Core_0_L2C_RFOs 79267
Core_0_L2C_RFO_hit 13998
Core_0_L2C_RFO_miss 65269
Core_0_L2C_prefetches 2581554
Core_0_L2C_prefetch_hit 1436973
Core_0_L2C_prefetch_miss 1144581
Core_0_L2C_writebacks 128641
Core_0_L2C_writeback_hit 128593
Core_0_L2C_writeback_miss 48
Core_0_L2C_prefetch_requested 3983357
Core_0_L2C_prefetch_dropped 0
Core_0_L2C_prefetch_issued 3983357
Core_0_L2C_prefetch_filled 1377215
Core_0_L2C_prefetch_useful 401757
Core_0_L2C_prefetch_useless 974250
Core_0_L2C_prefetch_late 50118
Core_0_L2C_average_miss_latency 37.23389

Core_0_L2C_rq_access 2617692
Core_0_L2C_rq_forward 0
Core_0_L2C_rq_merged 0
Core_0_L2C_rq_to_cache 2617686
Core_0_L2C_rq_full 0

Core_0_L2C_wq_access 128641
Core_0_L2C_wq_forward 11
Core_0_L2C_wq_merged 0
Core_0_L2C_wq_to_cache 128641
Core_0_L2C_wq_full 0

Core_0_L2C_pq_access 3983357
Core_0_L2C_pq_forward 0
Core_0_L2C_pq_merged 318408
Core_0_L2C_pq_to_cache 3664944
Core_0_L2C_pq_full 0

Core_0_L2C_acc_epochs 128072
Core_0_L2C_acc_level_0 55685
Core_0_L2C_acc_level_1 20627
Core_0_L2C_acc_level_2 19163
Core_0_L2C_acc_level_3 14239
Core_0_L2C_acc_level_4 8751
Core_0_L2C_acc_level_5 4108
Core_0_L2C_acc_level_6 1481
Core_0_L2C_acc_level_7 1077
Core_0_L2C_acc_level_8 919
Core_0_L2C_acc_level_9 2022

Core_0_LLC_total_access 2714520
Core_0_LLC_total_hit 2633269
Core_0_LLC_total_miss 81251
Core_0_LLC_loads 1351840
Core_0_LLC_load_hit 1343389
Core_0_LLC_load_miss 8451
Core_0_LLC_RFOs 65130
Core_0_LLC_RFO_hit 12455
Core_0_LLC_RFO_miss 52675
Core_0_LLC_prefetches 1194667
Core_0_LLC_prefetch_hit 1175805
Core_0_LLC_prefetch_miss 18862
Core_0_LLC_writebacks 102883
Core_0_LLC_writeback_hit 101620
Core_0_LLC_writeback_miss 1263
Core_0_LLC_prefetch_requested 0
Core_0_LLC_prefetch_dropped 0
Core_0_LLC_prefetch_issued 0
Core_0_LLC_prefetch_filled 30095
Core_0_LLC_prefetch_useful 5632
Core_0_LLC_prefetch_useless 17575
Core_0_LLC_prefetch_late 0
Core_0_LLC_average_miss_latency 192.42022

Core_0_LLC_rq_access 1416970
Core_0_LLC_rq_forward 0
Core_0_LLC_rq_merged 0
Core_0_LLC_rq_to_cache 1416970
Core_0_LLC_rq_full 0

Core_0_LLC_wq_access 102883
Core_0_LLC_wq_forward 0
Core_0_LLC_wq_merged 0
Core_0_LLC_wq_to_cache 102883
Core_0_LLC_wq_full 0

Core_0_LLC_pq_access 1427333
Core_0_LLC_pq_forward 0
Core_0_LLC_pq_merged 0
Core_0_LLC_pq_to_cache 1427333
Core_0_LLC_pq_full 0

Core_0_LLC_acc_epochs 134867
Core_0_LLC_acc_level_0 130463
Core_0_LLC_acc_level_1 1661
Core_0_LLC_acc_level_2 1292
Core_0_LLC_acc_level_3 156
Core_0_LLC_acc_level_4 32
Core_0_LLC_acc_level_5 995
Core_0_LLC_acc_level_6 44
Core_0_LLC_acc_level_7 53
Core_0_LLC_acc_level_8 9
Core_0_LLC_acc_level_9 162

Core_0_major_page_fault 0
Core_0_minor_page_fault 3484

scooby_st_lookup 3011870
scooby_st_hit 1679557
scooby_st_evict 1332249
scooby_st_insert 1332313
scooby_st_streaming 0

scooby_predict_called 3011870
scooby_predict_out_of_bounds 55211
scooby_predict_action_1 2689560
scooby_predict_issue_action_1 2622880
scooby_predict_hit_action_1 66680
scooby_predict_out_of_bounds_action_1 41570
scooby_predict_action_3 20885
scooby_predict_issue_action_3 13333
scooby_predict_hit_action_3 7552
scooby_predict_out_of_bounds_action_3 519
scooby_predict_action_4 38880
scooby_predict_issue_action_4 32421
scooby_predict_hit_action_4 6459
scooby_predict_out_of_bounds_action_4 690
scooby_predict_action_5 26735
scooby_predict_issue_action_5 21638
scooby_predict_hit_action_5 5097
scooby_predict_out_of_bounds_action_5 678
scooby_predict_action_10 8766
scooby_predict_issue_action_10 7823
scooby_predict_hit_action_10 943
scooby_predict_out_of_bounds_action_10 542
scooby_predict_action_11 19915
scooby_predict_issue_action_11 16413
scooby_predict_hit_action_11 3502
scooby_predict_out_of_bounds_action_11 1288
scooby_predict_action_12 8272
scooby_predict_issue_action_12 6891
scooby_predict_hit_action_12 1381
scooby_predict_out_of_bounds_action_12 1676
scooby_predict_action_22 3550
scooby_predict_issue_action_22 2961
scooby_predict_hit_action_22 589
scooby_predict_out_of_bounds_action_22 1259
scooby_predict_action_23 3099
scooby_predict_issue_action_23 2776
scooby_predict_hit_action_23 323
scooby_predict_out_of_bounds_action_23 1301
scooby_predict_action_30 2892
scooby_predict_issue_action_30 2497
scooby_predict_hit_action_30 395
scooby_predict_out_of_bounds_action_30 1664
scooby_predict_action_32 2803
scooby_predict_issue_action_32 2330
scooby_predict_hit_action_32 473
scooby_predict_out_of_bounds_action_32 1776
scooby_predict_action_-1 81415
scooby_predict_issue_action_-1 53934
scooby_predict_hit_action_-1 27481
scooby_predict_out_of_bounds_action_-1 698
scooby_predict_action_-3 20936
scooby_predict_issue_action_-3 17185
scooby_predict_hit_action_-3 3751
scooby_predict_out_of_bounds_action_-3 841
scooby_predict_action_-6 18339
scooby_predict_issue_action_-6 14545
scooby_predict_hit_action_-6 3794
scooby_predict_out_of_bounds_action_-6 709
scooby_predict_action_0 10612
scooby_predict_issue_action_0 0
scooby_predict_hit_action_0 0
scooby_predict_out_of_bounds_action_0 0
scooby_predict_multi_deg_called 375354
scooby_predict_predicted 3983357
scooby_predict_multi_deg 1165730
scooby_predict_multi_deg_2 369815
scooby_predict_multi_deg_3 242258
scooby_predict_multi_deg_4 238422
scooby_predict_multi_deg_5 159930
scooby_predict_multi_deg_6 155305
scooby_predict_multi_deg_7 0
scooby_predict_multi_deg_8 0
scooby_predict_multi_deg_9 0
scooby_predict_multi_deg_10 0
scooby_predict_multi_deg_11 0
scooby_predict_multi_deg_12 0
scooby_predict_multi_deg_13 0
scooby_predict_multi_deg_14 0
scooby_predict_multi_deg_15 0
scooby_predict_multi_deg_16 0

scooby_selected_deg_1 2442273
scooby_selected_deg_2 125200
scooby_selected_deg_3 0
scooby_selected_deg_4 75667
scooby_selected_deg_5 0
scooby_selected_deg_6 174487
scooby_selected_deg_7 0
scooby_selected_deg_8 0
scooby_selected_deg_9 0
scooby_selected_deg_10 0
scooby_selected_deg_11 0
scooby_selected_deg_12 0
scooby_selected_deg_13 0
scooby_selected_deg_14 0
scooby_selected_deg_15 0
scooby_selected_deg_16 0

scooby_state_638ec0|33|0 18093,5,4,12,8,5,5,6,4,4,6,15,3,2,2,18174,
scooby_state_638ec0|0|0 17886,8,4,20,2,2,6,1,6,4,3,8,1,6,8,17965,
scooby_state_638ec0|17|0 16477,4,3,30,4,5,7,9,3,6,3,17,4,3,6,16581,
scooby_state_638ec0|16|0 16511,7,7,12,8,4,4,4,3,2,2,6,5,2,3,16580,
scooby_state_638ec0|20|0 16393,5,7,12,6,2,3,3,1,7,2,5,3,3,1,16453,
scooby_state_638ec0|56|0 15265,7,4,8,3,4,2,1,3,5,2,5,5,4,7,15325,
scooby_state_638ec0|44|0 15143,3,7,14,4,7,3,3,3,1,2,0,1,6,1,15198,
scooby_state_638ec0|63|0 13177,5,8,9,4,1,2,3,2,8,1,9,2,3,4,13238,
scooby_state_638ec0|47|0 13115,4,5,20,6,4,4,3,4,3,6,4,1,0,6,13185,
scooby_state_638ec0|35|0 12751,4,5,14,5,2,3,2,1,4,2,4,6,4,2,12809,
scooby_state_638ec0|21|0 12519,7,3,11,4,2,7,4,1,3,1,5,3,3,3,12576,
scooby_state_638ec0|9|0 12518,2,6,6,2,5,2,1,2,5,4,5,4,4,6,12572,
scooby_state_638ec0|49|0 12427,4,3,13,4,5,5,2,1,3,4,2,0,0,5,12478,
scooby_state_638ec0|60|0 12416,2,5,15,5,2,5,4,2,1,1,3,4,1,3,12469,
scooby_state_638ebd|19|0 12402,3,2,2,2,2,2,4,4,7,1,2,2,5,4,12444,
scooby_state_638ebd|29|0 12385,4,5,0,2,3,2,2,2,1,2,17,3,4,1,12433,
scooby_state_638ec0|40|0 11798,1,4,13,2,3,6,1,1,2,2,7,2,4,0,11846,
scooby_state_638ec0|25|0 11743,2,2,3,4,3,1,5,4,2,5,10,3,5,3,11795,
scooby_state_638ec0|24|0 11736,4,4,4,7,4,2,2,1,3,3,5,1,1,4,11781,
scooby_state_638ebd|17|0 11741,4,1,3,0,0,1,2,3,4,4,2,2,3,3,11773,
scooby_state_638ebd|59|0 11720,2,3,0,2,5,2,4,6,2,1,21,1,1,2,11772,
scooby_state_638ec0|39|0 11722,5,3,9,1,3,3,3,3,2,4,5,1,2,2,11768,
scooby_state_638ec0|2|0 11695,2,4,3,1,3,1,3,3,6,3,7,4,2,3,11740,
scooby_state_638ec0|52|0 11654,4,2,4,1,2,2,3,1,6,3,8,4,2,7,11703,
scooby_state_638ebd|51|0 11567,1,0,1,2,3,0,1,3,3,2,5,4,0,2,11594,
scooby_state_638ec0|59|0 11136,2,4,11,2,4,2,2,3,2,2,4,0,3,1,11178,
scooby_state_638ebd|0|0 10901,23,3,3,2,7,5,5,1,3,5,93,5,5,5,11066,
scooby_state_638ec0|58|0 11019,1,1,6,1,4,4,1,5,2,3,4,1,6,2,11060,
scooby_state_638ec0|6|0 10945,2,0,8,2,4,8,3,1,1,2,4,3,4,3,10990,
scooby_state_638ebd|57|0 10523,3,0,3,3,0,1,3,2,1,3,5,0,1,2,10550,
scooby_state_638ec0|3|0 10439,2,1,14,1,1,2,3,2,5,2,8,2,4,5,10491,
scooby_state_638ec0|61|0 10456,1,3,3,5,2,3,1,4,1,2,3,2,3,1,10490,
scooby_state_638ebd|20|0 10468,5,1,5,1,1,0,1,0,0,1,2,0,3,2,10490,
scooby_state_638ec0|1|0 10427,1,2,9,4,2,3,5,1,2,4,14,1,0,4,10479,
scooby_state_638ec0|8|0 10431,0,2,5,1,2,4,3,2,3,3,5,1,3,1,10466,
scooby_state_638ebd|53|0 10403,5,1,2,5,2,1,0,0,2,3,3,3,1,1,10432,
scooby_state_638ec0|38|0 10364,4,2,15,1,3,4,4,0,1,2,10,3,3,6,10422,
scooby_state_638ebd|38|0 10335,2,1,4,2,2,2,2,1,2,2,4,0,3,4,10366,
scooby_state_638ebd|55|0 10295,5,1,2,3,3,2,4,0,1,1,41,4,1,2,10365,
scooby_state_638ec0|34|0 10323,3,2,15,3,7,1,0,1,1,3,0,1,2,1,10363,
scooby_state_638ec0|43|0 10320,4,3,9,3,3,2,1,0,0,3,3,2,3,2,10358,
scooby_state_638ec0|10|0 10320,4,0,6,3,4,1,3,4,0,4,1,5,1,2,10358,
scooby_state_638ec0|14|0 10303,5,2,16,3,3,3,2,0,6,4,5,0,2,2,10356,
scooby_state_638ec0|41|0 9986,2,3,2,4,5,1,6,1,1,5,1,3,3,4,10027,
scooby_state_638ebd|21|0 9869,1,2,3,4,1,4,2,1,2,0,3,1,3,1,9897,
scooby_state_638ec0|50|0 9798,0,1,9,4,4,1,1,5,1,1,3,0,1,3,9832,
scooby_state_638ebd|43|0 9801,0,1,2,2,2,1,3,1,3,3,2,1,0,0,9822,
scooby_state_638ebd|63|0 9689,26,2,2,3,6,4,3,0,2,2,72,4,1,1,9817,
scooby_state_638ec0|19|0 9746,0,3,10,3,3,3,4,1,1,2,9,2,3,3,9793,
scooby_state_638ebd|9|0 9744,3,4,1,0,2,3,2,4,0,3,18,3,0,2,9789,
scooby_state_638ec0|51|0 9682,3,8,4,1,3,4,3,0,0,1,3,2,0,1,9715,
scooby_state_638ebd|18|0 9644,0,0,2,1,2,0,3,4,1,1,13,3,1,1,9676,
scooby_state_638ec0|42|0 9628,2,2,10,2,3,2,1,1,1,3,6,8,2,3,9674,
scooby_state_638ec0|4|0 9628,4,2,11,1,2,6,1,2,1,1,3,1,1,5,9669,
scooby_state_638ec0|22|0 9619,1,1,18,2,2,3,3,2,3,4,2,3,1,1,9665,
scooby_state_638ebd|12|0 9628,1,6,2,3,0,0,2,1,1,4,9,3,2,1,9663,
scooby_state_638ed1|23|1 9586,2,14,5,2,3,6,2,6,3,1,2,3,17,5,9657,
scooby_state_638ebd|46|0 9540,4,4,2,0,0,4,1,2,0,1,3,2,2,4,9569,
scooby_state_638ebd|35|0 9292,0,0,1,4,0,4,4,2,2,4,13,0,1,3,9330,
scooby_state_638ec0|7|0 9272,0,3,16,2,1,3,2,2,2,3,3,0,2,1,9312,
scooby_state_638ec0|36|0 9063,2,6,5,1,0,1,3,2,2,1,0,4,1,3,9094,
scooby_state_638ec0|45|0 8988,2,4,5,1,2,2,2,1,2,6,1,2,5,0,9023,
scooby_state_638ec0|13|0 8972,2,3,0,4,2,3,2,2,2,1,4,0,5,1,9003,
scooby_state_638ebd|4|0 8951,3,4,4,6,1,4,2,1,1,4,1,1,2,3,8988,
scooby_state_638ec0|54|0 8947,4,4,4,5,4,0,2,2,2,2,3,2,1,1,8983,
scooby_state_638ec0|11|0 8949,3,2,1,4,1,2,1,4,2,6,2,0,3,1,8981,
scooby_state_638ebd|27|0 8960,1,1,2,4,0,1,3,2,2,2,0,0,0,3,8981,
scooby_state_638ec0|26|0 8950,5,1,3,5,0,0,1,1,1,2,2,2,2,5,8980,
scooby_state_638ebd|39|0 8940,3,3,3,2,2,3,4,1,0,0,12,2,1,3,8979,
scooby_state_638ec0|62|0 8949,1,1,2,1,0,0,2,3,3,3,2,1,4,5,8977,
scooby_state_638ebd|60|0 8904,2,2,2,2,2,3,1,0,1,2,2,1,3,4,8931,
scooby_state_638ebd|14|0 8644,2,0,1,3,0,1,1,1,1,1,1,0,0,2,8658,
scooby_state_638ec0|29|0 8474,3,3,11,0,0,2,2,2,1,2,1,2,1,2,8506,
scooby_state_638ebd|49|0 8341,0,3,1,0,1,1,1,3,0,0,7,2,2,3,8365,
scooby_state_638ec0|32|0 8331,0,1,12,2,3,1,2,3,0,1,1,3,1,1,8362,
scooby_state_638ed1|57|1 8296,4,9,5,4,1,2,2,4,1,2,1,7,11,6,8355,
scooby_state_638ec0|46|0 8307,2,0,5,2,4,2,1,2,0,4,1,3,2,3,8338,
scooby_state_638ebd|61|0 8266,1,2,2,0,1,1,1,1,0,3,13,3,1,3,8298,
scooby_state_638ec0|53|0 8259,1,1,16,1,3,2,0,2,1,3,3,0,1,1,8294,
scooby_state_638ebd|10|0 8194,7,3,5,1,3,5,3,3,2,1,63,2,0,0,8292,
scooby_state_638ebd|8|0 8274,1,1,0,1,0,2,3,1,0,1,3,1,0,1,8289,
scooby_state_638ec0|18|0 8261,2,2,2,5,0,0,1,0,5,3,1,2,1,0,8285,
scooby_state_638ec0|27|0 8252,2,0,0,1,3,0,3,3,1,3,1,1,2,2,8274,
scooby_state_638ec0|37|0 8210,1,2,4,2,0,4,2,1,3,1,1,1,3,1,8236,
scooby_state_638ebd|50|0 8142,0,2,3,1,1,2,0,1,3,1,1,1,0,1,8159,
scooby_state_638ec0|48|0 7831,2,4,3,2,2,2,4,0,0,2,2,3,2,1,7860,
scooby_state_638ebd|25|0 7795,1,4,3,1,2,2,2,0,1,0,13,2,3,5,7834,
scooby_state_638ed1|34|1 7654,2,13,2,4,2,4,1,5,3,2,3,3,9,6,7713,
scooby_state_638ebd|26|0 7701,2,2,1,1,0,1,0,0,2,0,1,1,0,1,7713,
scooby_state_638ec0|12|0 7644,4,1,3,3,3,2,1,4,0,2,3,0,5,2,7677,
scooby_state_638ec0|5|0 7598,3,0,5,0,5,3,2,1,1,1,3,2,3,2,7629,
scooby_state_638ebd|34|0 7538,1,3,0,2,2,1,2,0,0,2,48,2,0,1,7602,
scooby_state_638ebd|5|0 7586,2,1,3,2,0,0,1,2,0,1,1,0,1,2,7602,
scooby_state_638ed1|21|1 7554,3,5,3,1,5,4,6,2,2,3,1,1,7,2,7599,
scooby_state_638ebd|52|0 7478,23,0,0,2,3,5,2,1,0,0,77,2,4,1,7598,
scooby_state_638ed1|62|1 7552,3,3,1,4,1,5,2,3,3,4,3,2,6,4,7596,
scooby_state_638ec0|28|0 7565,3,2,2,3,1,1,1,3,1,0,0,4,4,5,7595,
scooby_state_638ebd|31|0 7458,18,4,1,2,5,4,3,1,0,1,92,3,1,2,7595,
scooby_state_638ed1|6|1 7494,1,13,2,8,2,3,5,5,5,2,0,3,14,2,7559,
scooby_state_638eb0|30|1 7487,5,5,1,6,3,3,1,7,3,2,4,4,3,2,7536,
scooby_state_638ebd|54|0 7362,2,0,3,0,1,0,0,2,0,0,7,1,1,1,7380,
scooby_state_638eb0|21|1 6979,5,4,4,4,3,1,2,2,4,0,3,1,3,4,7019,
scooby_state_638ebd|45|0 6834,0,1,0,1,1,2,3,0,3,0,81,4,1,0,6931,
scooby_state_638ebd|11|0 6859,4,0,2,2,2,2,3,0,1,2,33,1,0,2,6913,
scooby_state_638ebd|44|0 6801,7,3,2,1,1,2,2,3,1,0,82,2,1,3,6911,
scooby_state_638ec0|55|0 6871,0,3,11,1,2,3,0,1,1,1,5,2,3,1,6905,
scooby_state_638ebd|41|0 6882,2,5,3,2,0,1,1,0,1,1,0,1,1,0,6900,
scooby_state_638ed1|9|1 6829,1,4,1,4,4,1,1,2,4,1,4,4,6,5,6871,
scooby_state_638eb0|52|1 6781,2,3,5,0,6,4,2,1,3,2,3,5,3,4,6824,
scooby_state_638eb0|19|1 6746,5,5,1,5,0,1,2,2,2,0,2,7,4,4,6786,
scooby_state_638ebd|37|0 6767,3,0,2,1,2,0,0,2,0,0,2,1,2,2,6784,
scooby_state_638ebd|42|0 6659,0,2,0,2,2,2,2,2,0,1,24,2,0,1,6699,
scooby_state_638ec0|57|0 6455,2,0,3,2,3,0,4,0,1,1,3,3,2,2,6481,
scooby_state_638ed1|4|1 6354,1,5,4,1,2,0,4,3,3,2,1,3,10,6,6399,
scooby_state_638ebd|7|0 6379,0,0,0,0,0,1,1,4,1,1,0,0,1,3,6391,
scooby_state_638ebd|32|0 6332,3,1,1,0,0,2,1,1,2,3,1,2,2,4,6355,
scooby_state_638ec0|30|0 6305,1,0,5,2,1,2,1,1,1,2,1,3,3,3,6331,
scooby_state_638ed1|36|1 6279,3,9,2,2,1,2,4,4,3,2,1,1,4,2,6319,
scooby_state_638ebd|40|0 6278,1,1,1,1,3,1,0,1,3,0,4,3,1,1,6299,
scooby_state_638ec0|15|0 6232,2,3,17,0,4,3,2,2,1,1,0,1,4,1,6273,
scooby_state_638ebd|47|0 6217,1,4,0,0,2,1,1,1,1,1,0,0,2,3,6234,
scooby_state_638ebd|23|0 6205,3,2,1,0,1,0,1,1,0,2,1,0,2,1,6220,
scooby_state_638ebd|1|0 6187,2,3,2,2,1,1,3,2,1,1,3,2,3,2,6215,
scooby_state_638ed1|18|1 6161,0,6,2,1,0,2,1,4,3,2,2,2,4,7,6197,
scooby_state_638ebd|13|1 5764,3,2,4,4,5,1,4,5,4,1,328,7,2,1,6135,
scooby_state_638ebd|62|0 6086,0,1,2,1,1,0,1,0,1,1,1,2,1,1,6099,
scooby_state_638ec0|53|1 5768,0,3,2,2,1,2,1,1,1,4,1,4,2,5,5797,
scooby_state_64cc6c|40|1 5691,3,1,1,0,1,1,1,3,1,1,0,0,2,1,5707,
scooby_state_638ed1|17|1 5623,1,8,2,2,2,2,1,3,3,4,2,2,7,4,5666,
scooby_state_638ebd|24|0 5588,1,3,1,2,1,1,3,0,1,0,0,0,3,2,5606,
scooby_state_638ebd|6|0 5577,2,1,3,1,1,0,2,0,2,1,5,0,2,1,5598,
scooby_state_638ed1|41|1 5529,3,10,2,2,3,1,1,0,0,2,2,3,11,4,5573,
scooby_state_638ebd|22|0 5535,1,0,1,0,0,1,0,1,1,0,0,0,1,3,5544,
scooby_state_638ebd|30|0 5520,0,1,0,1,1,0,1,0,1,0,3,0,0,3,5531,
scooby_state_638ed1|20|1 5487,1,8,3,3,3,1,2,2,4,1,0,5,4,4,5528,
scooby_state_638ebd|58|0 5503,2,3,1,6,1,0,0,0,3,0,3,0,1,2,5525,
scooby_state_638ed1|38|1 5469,0,13,2,1,1,1,1,1,1,4,3,5,13,3,5518,
scooby_state_638eb0|47|1 5455,3,2,1,5,1,1,0,0,2,1,3,5,2,1,5482,
scooby_state_638ed1|12|1 5433,1,3,1,0,0,1,1,1,3,3,3,3,5,4,5462,
scooby_state_638eb0|14|1 5403,4,4,2,2,3,0,1,3,0,3,5,3,0,3,5436,
scooby_state_638eb0|42|1 5395,0,0,1,1,1,8,0,0,0,0,0,13,4,1,5424,
scooby_state_64cc6c|54|1 5254,1,1,0,0,0,0,1,1,1,0,1,0,0,0,5260,
scooby_state_64cc6c|35|1 5221,2,1,0,0,0,0,0,1,0,0,3,1,0,0,5229,
scooby_state_64cc6c|2|1 5202,1,1,0,1,0,0,1,0,1,0,0,1,1,1,5210,
scooby_state_64cc6c|47|1 5065,0,0,0,0,0,0,1,0,0,1,0,1,1,0,5069,
scooby_state_638ed1|25|1 4971,1,7,2,2,2,1,4,0,1,3,0,5,5,2,5006,
scooby_state_638ed1|1|1 4926,1,11,2,0,0,1,2,3,2,4,1,3,11,3,4970,
scooby_state_638ec0|31|0 4949,2,0,1,0,1,1,3,1,1,0,1,1,2,1,4964,
scooby_state_638ebd|28|0 4931,2,1,3,0,2,0,0,1,0,0,3,1,2,2,4948,
scooby_state_638ebd|13|0 4908,0,0,2,1,0,3,2,1,1,2,1,0,1,1,4923,
scooby_state_64cc6c|3|1 4892,1,1,3,1,0,0,0,0,1,0,0,0,0,1,4900,
scooby_state_638ebd|16|0 4851,2,1,1,1,1,2,2,5,0,0,22,2,2,2,4894,
scooby_state_638eb0|60|1 4858,3,3,3,1,2,1,2,2,0,2,1,1,2,4,4885,
scooby_state_638ed1|0|0 4456,25,55,30,33,12,26,25,20,24,23,27,17,13,54,4840,
scooby_state_638ebd|33|0 4823,2,0,1,2,0,0,1,0,2,2,2,1,0,2,4838,
scooby_state_638ed1|7|1 4806,3,2,1,0,1,1,4,2,3,0,6,1,3,4,4837,
scooby_state_638eb0|20|1 4807,1,2,1,3,2,1,2,3,2,3,0,5,3,2,4837,
scooby_state_638ec0|23|0 4822,2,2,2,0,1,0,0,3,0,0,1,0,2,2,4837,
scooby_state_638ed1|15|1 4809,0,2,2,0,0,0,1,2,3,3,1,4,5,3,4835,
scooby_state_638ed1|45|1 4807,3,4,0,3,1,0,4,0,2,2,0,3,4,2,4835,
scooby_state_638ebd|59|1 4244,3,6,0,2,2,1,5,4,4,2,554,2,0,4,4833,
scooby_state_638ed1|48|1 4797,2,3,2,1,1,0,2,4,2,3,2,5,6,2,4832,
scooby_state_638ec0|45|1 4794,2,1,4,1,2,2,0,3,4,1,6,3,5,3,4831,
scooby_state_638ec0|32|1 4775,4,2,2,4,3,6,5,3,6,2,6,3,1,6,4828,
scooby_state_638eb0|33|1 4798,2,5,1,2,1,2,2,1,3,2,1,3,1,3,4827,
scooby_state_638ebd|3|0 4806,2,3,0,0,2,1,1,2,2,1,0,1,1,1,4823,
scooby_state_638eb0|58|1 4754,2,0,2,3,3,1,2,3,2,2,2,1,1,2,4780,
scooby_state_638eb0|36|1 4751,3,2,1,1,0,3,2,0,0,3,1,5,1,4,4777,
scooby_state_638eb0|41|1 4733,1,2,3,2,1,2,0,2,1,2,1,3,1,1,4755,
scooby_state_638eb0|46|1 4719,3,2,2,5,1,0,2,3,0,2,2,4,3,5,4753,
scooby_state_64cc6c|39|1 4715,0,0,0,0,0,1,0,1,1,1,3,1,1,0,4724,
scooby_state_638eb0|1|1 4628,2,2,3,2,4,1,2,1,2,1,3,0,1,3,4655,
scooby_state_64cc6c|25|1 4437,0,1,1,0,1,1,0,0,0,0,1,0,0,1,4443,
scooby_state_638ed1|40|1 4254,3,2,0,0,0,0,3,2,2,4,2,1,5,5,4283,
scooby_state_638ed1|10|1 4218,2,9,0,2,1,3,1,0,1,0,1,2,10,5,4255,
scooby_state_638ebd|36|0 4235,0,0,0,0,2,0,1,1,0,0,2,0,1,1,4243,
scooby_state_638ec0|48|1 4184,1,1,2,1,1,0,1,1,1,1,6,0,2,0,4202,
scooby_state_64cc6c|32|1 4185,1,0,1,0,3,1,0,0,0,0,1,0,0,0,4192,
scooby_state_638ebd|56|0 4123,0,1,3,0,1,1,2,0,1,1,21,1,0,2,4157,
scooby_state_64cc6c|53|1 4146,0,0,2,0,0,1,0,1,1,0,0,0,1,0,4152,
scooby_state_638eb0|5|1 4123,3,2,0,6,1,0,2,0,1,1,2,1,2,2,4146,
scooby_state_638eb0|2|1 4123,4,1,1,3,0,1,3,1,1,1,0,0,1,6,4146,
scooby_state_638ed1|35|1 4122,1,4,1,0,1,1,1,0,2,2,1,1,5,2,4144,
scooby_state_638ec0|2|1 4090,2,1,12,1,2,5,3,4,4,3,8,2,2,4,4143,
scooby_state_638ed1|59|1 4117,0,4,2,1,1,2,1,0,2,1,3,1,5,3,4143,
scooby_state_638ed1|63|1 4114,1,8,1,1,4,2,1,0,1,1,1,2,3,3,4143,
scooby_state_638ed1|52|1 4108,0,7,2,2,3,4,1,1,2,1,1,1,6,4,4143,
scooby_state_638eb0|32|1 4119,1,1,2,2,3,2,1,2,0,1,1,3,2,1,4141,
scooby_state_638ed1|55|1 4110,1,7,0,0,2,2,3,2,1,1,0,1,5,4,4139,
scooby_state_638eb0|13|1 4115,3,2,4,1,2,1,1,1,1,1,3,1,1,2,4139,
scooby_state_638ed1|3|1 4108,3,8,1,2,1,0,1,1,1,0,1,1,6,3,4137,
scooby_state_638ed1|50|1 4109,3,5,2,0,0,1,2,1,0,6,0,0,8,0,4137,
scooby_state_638ebd|61|1 3889,2,3,1,2,3,2,1,1,1,0,222,3,2,4,4136,
scooby_state_638ec0|8|1 4099,2,2,2,0,3,1,3,2,1,1,6,1,2,4,4129,
scooby_state_638ed1|47|1 4078,2,11,4,0,0,0,0,1,1,0,2,3,8,5,4115,
scooby_state_64cc6c|52|1 4106,0,2,1,1,1,0,1,0,0,0,0,1,0,1,4114,
scooby_state_64cc6c|36|1 4103,1,1,0,0,1,0,2,1,0,1,1,0,1,1,4113,
scooby_state_638eb0|9|1 4088,2,1,2,3,2,1,1,1,1,4,1,1,2,0,4110,
scooby_state_638eb0|10|1 4071,2,0,2,2,0,5,0,1,3,0,0,6,0,2,4094,
scooby_state_638ebd|48|0 4083,0,1,0,1,0,0,1,2,0,3,0,0,0,0,4091,
scooby_state_638ed1|49|1 4066,2,3,2,2,0,4,1,1,0,2,1,0,4,3,4091,
scooby_state_638ec0|17|1 4061,2,1,1,1,4,0,3,1,1,0,6,1,1,2,4085,
scooby_state_64cc6c|34|1 4060,0,0,0,0,2,0,2,0,1,0,2,0,0,1,4068,
scooby_state_64cc6c|15|1 4030,0,0,0,0,1,1,1,0,0,0,0,0,0,2,4035,
scooby_state_638eb0|51|1 3970,3,0,1,2,1,2,1,0,1,2,3,2,0,3,3991,
scooby_state_64cc6c|43|1 3955,1,0,0,1,0,0,0,2,0,1,0,0,0,0,3960,
scooby_state_638ed1|43|1 3929,1,5,2,1,1,2,3,0,1,1,1,0,2,1,3950,
scooby_state_64cc6c|46|1 3927,1,0,1,1,0,1,0,0,1,2,1,1,0,2,3938,
scooby_state_64cc6c|20|1 3866,0,0,1,0,0,0,1,0,0,0,1,1,0,0,3870,
scooby_state_638eb0|28|1 3833,2,1,1,2,4,1,0,2,1,0,1,4,4,1,3857,
scooby_state_64cc6c|55|1 3848,1,1,0,0,2,0,0,0,1,1,1,0,1,1,3857,
scooby_state_638eb0|57|1 3805,2,3,1,4,0,0,3,2,4,1,0,0,1,4,3830,
scooby_state_638ed1|39|1 3736,2,9,2,0,2,2,0,1,0,1,1,0,6,2,3764,
scooby_state_64cc6c|51|1 3718,0,0,1,0,0,0,2,0,2,0,1,0,0,0,3724,
scooby_state_638ebd|37|1 2987,2,0,2,1,1,1,2,1,2,1,627,3,1,5,3636,
scooby_state_638ec0|22|1 3558,1,1,4,1,1,3,1,1,4,2,3,2,2,3,3587,
scooby_state_638ec0|20|1 3531,4,2,4,4,3,4,0,3,4,2,8,2,3,5,3579,
scooby_state_638ec0|14|1 3519,1,2,1,0,0,0,2,3,1,1,2,0,1,0,3533,
scooby_state_64cc6c|19|1 3525,0,0,0,0,0,0,1,1,1,1,1,2,0,0,3532,
scooby_state_638ec0|58|1 3473,3,0,3,3,1,3,2,1,2,3,7,2,2,2,3507,
scooby_state_638ec0|23|1 3474,0,2,1,2,2,1,0,0,2,0,1,0,1,1,3487,
scooby_state_638ec0|39|1 3454,2,0,1,2,1,1,4,3,0,0,4,2,1,0,3475,
scooby_state_638ec0|40|1 3449,3,0,2,0,1,2,3,0,1,0,3,5,0,0,3469,
scooby_state_638ebd|15|0 3453,1,0,2,0,1,0,1,0,0,1,1,0,1,2,3463,
scooby_state_638ebd|3|1 3099,5,2,1,0,3,1,3,3,1,2,316,12,3,5,3456,
scooby_state_638ebd|47|1 3287,3,2,1,1,1,1,2,3,1,0,153,1,0,0,3456,
scooby_state_638ebd|21|1 3420,0,2,0,2,3,1,1,0,0,0,19,2,2,3,3455,
scooby_state_638ebd|18|-1 3423,4,3,4,5,2,2,2,1,1,1,4,0,0,3,3455,
scooby_state_638ed1|8|1 3440,0,0,0,1,2,1,0,1,2,1,1,1,1,4,3455,
scooby_state_638ec0|36|1 3401,3,3,8,3,4,4,2,2,4,4,5,2,2,8,3455,
scooby_state_638ebd|7|1 3267,1,1,1,2,3,2,1,2,1,2,167,2,0,3,3455,
scooby_state_638ed1|51|1 3434,1,3,1,0,2,2,2,0,1,1,3,1,1,3,3455,
scooby_state_638ec0|5|1 3439,1,1,1,1,3,0,1,2,1,0,2,0,0,3,3455,
scooby_state_638ebd|39|1 3182,2,1,1,1,2,0,0,0,0,0,252,9,1,4,3455,
scooby_state_638ec0|60|1 3413,3,1,3,2,2,5,1,1,4,2,5,3,4,4,3453,
scooby_state_638ebd|5|1 3245,0,0,3,1,0,3,1,4,0,0,193,3,0,0,3453,
scooby_state_638ed1|31|1 3428,0,7,2,2,1,0,0,1,2,1,2,0,5,2,3453,
scooby_state_638ed1|53|1 3416,1,11,3,2,1,0,0,2,1,4,0,2,8,2,3453,
scooby_state_638ebd|1|1 2973,2,1,1,1,1,2,0,2,1,0,454,8,2,4,3452,
scooby_state_638ebd|19|1 3126,2,1,3,1,4,2,2,5,2,0,302,1,0,1,3452,
scooby_state_638ed1|11|1 3419,3,6,1,2,2,3,3,2,1,2,0,0,6,1,3451,
scooby_state_638ebd|58|1 3214,2,3,3,1,4,0,2,4,3,1,212,0,0,1,3450,
scooby_state_638eb0|18|1 3430,4,1,2,0,2,1,1,1,1,2,2,1,1,1,3450,
scooby_state_638ec0|10|1 3423,1,4,4,3,3,1,2,1,0,4,1,1,1,1,3450,
scooby_state_638eb0|15|1 3433,1,1,3,2,1,0,1,0,0,2,1,1,1,2,3449,
scooby_state_638ec0|1|1 3427,3,2,0,1,2,3,1,3,0,0,2,3,0,2,3449,
scooby_state_638ebd|55|1 3250,2,1,2,1,1,0,3,3,2,1,178,2,2,1,3449,
scooby_state_638eb0|29|1 3418,0,1,0,8,0,1,0,0,1,1,2,6,1,3,3442,
scooby_state_638eb0|11|1 3415,2,3,0,0,2,0,2,0,1,2,0,1,0,6,3434,
scooby_state_638eb0|55|1 3413,0,0,1,3,1,1,0,1,3,2,1,2,1,1,3430,
scooby_state_638eb0|23|1 3401,1,1,2,1,1,3,1,1,0,0,0,3,3,1,3419,
scooby_state_638eb0|39|1 3400,1,0,0,4,0,0,0,2,2,1,2,1,0,1,3414,
scooby_state_638ed1|26|1 3349,2,5,2,1,0,0,0,1,2,1,1,0,6,3,3373,
scooby_state_638ebd|34|1 3076,1,2,3,3,2,5,1,1,0,0,227,9,3,3,3336,
scooby_state_638ebd|25|1 3094,4,1,2,2,3,0,3,4,2,1,213,1,0,0,3330,
scooby_state_638ebd|20|-1 3277,2,1,2,2,5,0,0,3,1,1,29,1,1,1,3326,
scooby_state_638ec0|9|1 3278,3,1,1,1,2,1,2,1,0,1,3,5,0,4,3303,
scooby_state_64cc6c|33|1 3270,0,0,2,1,0,0,1,2,0,0,0,1,0,2,3279,
scooby_state_638eb0|7|1 3148,1,1,1,1,1,1,1,0,0,1,2,3,1,2,3164,
scooby_state_64cc6c|59|1 3145,0,0,1,1,0,0,0,0,0,0,0,0,0,0,3147,
scooby_state_64cc6c|0|0 3141,0,1,0,1,0,1,1,0,0,0,0,0,0,1,3146,
scooby_state_64cc6c|58|1 3141,0,1,0,0,0,1,0,1,1,0,0,0,0,0,3145,
scooby_state_64cc6c|60|1 3128,0,2,0,0,1,0,0,1,0,1,0,0,0,0,3133,
scooby_state_64cc6c|61|1 3112,0,1,0,0,0,0,0,0,0,0,0,0,0,1,3114,
scooby_state_638ec0|34|1 3033,2,2,10,3,4,6,1,3,5,4,6,2,3,7,3091,
scooby_state_64cc6c|7|1 3008,0,0,0,1,0,3,1,0,1,0,0,0,0,0,3014,
scooby_state_64cc6c|37|1 2999,0,0,1,0,0,1,2,1,0,1,0,0,0,0,3005,
scooby_state_64cc6c|62|1 2996,0,0,1,0,0,1,3,1,0,0,0,0,0,0,3002,
scooby_state_638ebd|60|1 2876,1,2,0,1,1,0,1,1,1,3,107,1,1,1,2997,
scooby_state_64cc6c|38|1 2969,0,1,0,0,0,0,0,0,2,1,0,0,0,0,2973,
scooby_state_64cc6c|1|1 2964,0,1,0,0,1,1,2,0,0,1,0,1,1,0,2972,
scooby_state_64cc6c|21|1 2964,0,0,0,1,0,1,1,0,0,0,1,0,0,0,2968,
scooby_state_638eb0|8|1 2927,0,1,2,2,2,2,1,0,0,1,2,6,1,0,2947,
scooby_state_64cc6c|41|1 2923,0,1,0,0,0,1,0,1,0,1,0,0,2,0,2929,
scooby_state_4983e1|2|0 2,2,3,2612,5,234,2,8,7,4,2,10,2,3,3,2899,
scooby_state_64cc6c|50|1 2889,1,0,0,1,1,0,0,0,0,0,0,0,1,0,2893,
scooby_state_64cc6c|42|1 2867,1,0,3,0,1,0,0,1,1,1,0,0,0,1,2876,
scooby_state_64cc6c|4|1 2858,1,0,0,1,0,0,0,1,0,0,0,3,0,0,2864,
scooby_state_638ec0|37|1 2812,0,2,0,0,0,0,2,0,0,0,3,2,1,1,2823,
scooby_state_638ec0|41|1 2785,1,1,1,1,4,2,0,1,2,1,4,2,1,4,2810,
scooby_state_638ec0|56|1 2780,1,2,1,2,1,2,1,1,2,0,4,1,0,4,2802,
scooby_state_638ec0|35|1 2741,3,2,11,3,3,4,0,1,3,4,7,1,5,5,2793,
scooby_state_638ec0|18|1 2757,0,1,8,1,1,2,2,1,1,2,3,0,1,3,2783,
scooby_state_638ed1|13|1 2761,1,4,2,0,0,1,2,0,0,3,2,1,2,2,2781,
scooby_state_64cc6c|16|1 2773,1,1,1,0,1,0,0,0,1,0,0,0,0,0,2778,
scooby_state_638ec0|59|1 2768,0,2,0,1,1,1,0,2,0,1,0,1,1,0,2778,
scooby_state_64cc6c|26|1 2776,0,0,0,0,1,0,0,1,0,0,0,0,0,0,2778,
scooby_state_638ebd|57|1 2757,2,0,1,3,1,1,1,2,1,2,2,0,1,1,2775,
scooby_state_638ebd|12|1 2591,2,1,0,1,2,3,1,0,0,1,155,2,2,4,2765,
scooby_state_638ebd|53|1 2632,2,0,3,1,4,1,2,4,2,1,109,2,1,1,2765,
scooby_state_638ebd|24|1 2682,3,2,0,1,1,1,2,1,0,1,61,2,3,4,2764,
scooby_state_638ebd|6|1 2550,1,1,1,4,1,1,0,0,0,1,196,4,1,3,2764,
scooby_state_638ed1|46|1 2743,1,3,3,2,1,1,3,0,0,2,0,0,2,3,2764,
scooby_state_638ebd|33|1 2734,1,1,2,3,4,3,3,3,0,0,2,4,3,1,2764,
scooby_state_638ed1|19|1 2748,0,0,2,1,2,2,0,1,0,0,2,1,1,4,2764,
scooby_state_638ebd|62|1 2591,4,0,0,1,3,2,2,1,0,1,146,8,4,1,2764,
scooby_state_638ebd|20|1 2592,2,1,2,1,1,0,4,1,1,0,153,2,1,3,2764,
scooby_state_638eb0|22|1 2751,1,3,1,1,0,0,1,0,1,1,1,0,1,2,2764,
scooby_state_638ebd|2|0 2754,0,3,1,1,1,1,0,2,0,0,1,0,0,0,2764,
scooby_state_638ebd|18|1 2416,1,5,1,2,2,3,2,1,3,0,319,4,1,4,2764,
scooby_state_638ed1|29|1 2745,1,4,0,1,1,0,3,0,3,0,1,1,1,3,2764,
scooby_state_638ec0|62|-1 2716,4,15,0,0,2,6,4,0,2,2,3,3,2,5,2764,
scooby_state_638ed1|22|1 2747,0,2,0,2,1,0,0,3,1,0,1,2,2,3,2764,
scooby_state_638ed1|16|1 2750,0,1,0,1,1,1,0,0,1,0,2,1,1,3,2762,
scooby_state_638ed1|44|1 2747,4,1,0,0,1,1,2,0,1,1,0,1,1,2,2762,
scooby_state_638ed1|33|1 2742,1,4,1,0,1,1,3,0,0,0,1,2,4,1,2761,
scooby_state_638ed1|61|1 2747,1,0,1,0,0,2,0,3,0,1,1,1,1,3,2761,
scooby_state_638ebd|23|-1 2584,4,2,3,9,4,2,2,1,3,1,140,0,2,3,2760,
scooby_state_638ebd|42|1 2377,4,3,0,0,3,0,2,4,4,0,351,7,2,2,2759,
scooby_state_638ebd|23|1 2634,1,1,1,1,2,0,1,1,2,1,107,3,2,0,2757,
scooby_state_638ed1|37|1 2730,1,7,2,0,2,1,1,0,2,1,0,0,6,2,2755,
scooby_state_638eb0|4|1 2737,1,0,0,2,0,2,3,1,1,0,2,3,1,1,2754,
scooby_state_638ebd|42|-1 2544,3,1,1,4,0,4,1,0,0,1,187,3,2,3,2754,
scooby_state_638eb0|12|1 2730,2,0,0,1,1,0,1,2,2,2,0,1,1,2,2745,
scooby_state_638eb0|63|1 2728,0,2,1,3,1,1,0,1,0,2,1,2,2,0,2744,
scooby_state_638eb0|38|1 2728,2,1,1,2,0,1,1,0,1,2,1,0,0,3,2743,
scooby_state_638ec0|11|1 2730,1,0,1,1,0,0,1,3,0,0,3,1,0,1,2742,
scooby_state_638eb0|54|1 2726,2,0,2,1,0,2,1,0,0,2,1,0,1,1,2739,
scooby_state_638eb0|6|1 2719,1,1,1,2,2,0,1,1,3,1,1,0,0,1,2734,
scooby_state_638eb0|3|1 2703,0,1,1,2,0,0,1,2,0,1,2,2,0,1,2716,
scooby_state_638eb0|48|1 2681,1,0,1,4,2,1,2,2,0,1,2,2,1,0,2700,
scooby_state_638ebd|45|-2 2263,162,10,6,6,6,7,3,5,2,5,208,4,4,7,2698,
scooby_state_638eb0|17|1 2672,3,0,0,4,1,2,3,1,0,1,2,5,0,1,2695,
scooby_state_64cc6c|8|1 2631,1,0,0,0,1,0,0,0,0,1,1,1,0,1,2637,
scooby_state_638eb0|25|1 2621,2,1,1,2,0,0,1,0,1,1,3,1,1,0,2635,
scooby_state_638ebd|32|-1 2424,2,0,1,7,0,6,1,0,0,0,183,2,2,6,2634,
scooby_state_64cc6c|56|1 2596,0,1,0,0,0,0,1,0,0,1,0,0,0,0,2599,
scooby_state_638ec0|34|-2 2454,68,13,4,3,2,2,0,3,1,3,4,5,9,10,2581,
scooby_state_64cc6c|57|1 2501,0,0,0,0,0,0,0,3,0,1,0,0,1,0,2506,
scooby_state_64cc6c|29|1 2500,0,0,1,0,0,0,1,1,0,0,1,0,1,0,2505,
scooby_state_64cc6c|24|1 2417,0,0,0,1,0,0,0,0,1,0,0,0,0,1,2420,
scooby_state_64cc6c|63|1 2412,0,0,0,0,1,0,0,0,0,0,0,0,0,0,2413,
scooby_state_638ebd|58|-1 2366,0,1,4,1,0,4,2,0,1,1,1,1,3,1,2386,
scooby_state_5e33c1|15|0 2157,13,0,195,2,0,3,2,0,1,2,1,4,2,4,2386,
scooby_state_64cc6c|9|1 2373,0,0,1,0,1,1,0,0,1,0,1,0,0,1,2379,
scooby_state_638ed1|56|1 2356,0,4,4,1,1,0,0,1,0,1,0,1,6,2,2377,
scooby_state_64cc6c|31|1 2369,0,0,0,1,1,0,0,0,0,0,0,0,0,0,2371,
scooby_state_638ed1|27|1 2301,0,3,0,0,1,0,1,1,0,1,2,0,4,1,2315,
scooby_state_638ed1|24|1 2301,0,3,1,0,0,0,1,0,0,0,0,3,5,1,2315,
scooby_state_64cc6c|14|1 2303,0,0,0,1,0,0,0,1,0,0,0,1,0,0,2306,
scooby_state_64cc6c|12|1 2288,0,0,0,0,0,0,0,0,1,0,1,0,0,0,2290,
scooby_state_64cc6c|44|1 2280,0,1,0,0,1,1,0,0,0,1,0,0,1,0,2285,
scooby_state_64cc6c|45|1 2276,0,0,0,0,0,0,0,0,0,0,0,0,0,0,2276,
scooby_state_64cc6c|5|1 2260,0,0,0,0,0,1,1,0,0,0,0,0,0,1,2263,
scooby_state_638ebd|45|1 2226,0,0,2,2,1,1,1,0,0,0,4,4,1,2,2244,
scooby_state_638ebd|24|-1 2219,1,0,2,1,1,5,0,1,1,1,4,1,2,3,2242,
scooby_state_64cc6c|11|1 2228,1,1,1,1,0,0,1,0,0,0,0,1,0,0,2234,
scooby_state_64cc6c|48|1 2230,0,0,0,1,0,0,0,0,1,0,0,0,0,0,2232,
scooby_state_638ebd|51|1 2105,3,0,1,0,1,0,3,1,1,1,105,1,1,3,2226,
scooby_state_64cc6c|30|1 2222,0,0,0,0,0,0,0,0,0,0,0,1,0,3,2226,
scooby_state_64cc6c|6|1 2219,0,1,0,1,0,0,0,1,1,1,1,0,0,0,2225,
scooby_state_49c402|16|1 568,7,0,8,6,0,131,0,2,6,9,1440,4,5,32,2218,
scooby_state_64cc6c|49|1 2188,0,1,0,0,0,0,0,0,0,1,0,2,0,1,2193,
scooby_state_64cc6c|10|1 2157,0,0,0,0,0,0,0,0,0,0,0,2,0,0,2159,
scooby_state_638ec0|52|1 2120,1,2,0,1,1,1,1,1,0,0,0,0,1,1,2130,
scooby_state_638ec0|3|1 2095,1,0,2,1,2,2,1,1,2,1,2,2,1,2,2115,
scooby_state_638ebd|46|1 1983,3,1,0,0,1,1,2,0,0,2,104,2,4,1,2104,
scooby_state_638ec0|43|1 2089,0,1,0,0,0,0,1,2,1,0,1,1,0,0,2096,
scooby_state_638ec0|54|1 2081,1,1,0,1,2,0,2,0,0,1,2,0,1,1,2093,
scooby_state_638ec0|31|1 2082,0,0,0,0,0,1,0,1,1,1,0,3,1,0,2090,
scooby_state_638ec0|38|1 2081,0,0,0,0,0,0,3,0,0,1,1,1,0,0,2087,
scooby_state_64cc6c|13|1 2081,0,1,0,0,1,1,0,1,1,0,0,0,0,0,2086,
scooby_state_638ec0|24|1 2060,1,0,1,1,1,2,1,1,2,1,2,1,1,2,2077,
scooby_state_638ebd|54|-1 1948,0,2,1,3,0,0,2,2,3,2,106,1,1,3,2074,
scooby_state_638ebd|41|1 1836,2,2,1,2,3,1,3,2,2,0,214,2,1,3,2074,
scooby_state_638ec0|33|-1 2025,3,4,1,4,3,4,2,2,2,3,7,4,4,6,2074,
scooby_state_638ed1|58|1 2060,0,3,0,1,0,0,0,1,1,1,1,1,2,2,2073,
scooby_state_638ebd|60|-2 1660,137,8,3,2,4,4,2,2,0,3,231,6,3,8,2073,
scooby_state_638ec0|62|1 2063,0,0,2,0,1,0,2,2,1,1,0,1,0,0,2073,
scooby_state_638ebd|62|-1 1996,4,1,4,2,5,0,2,1,1,0,56,0,0,1,2073,
scooby_state_638ec0|10|-1 2065,1,1,0,0,0,1,1,0,1,0,0,1,1,1,2073,
scooby_state_638eb0|45|1 2062,0,1,1,2,0,0,0,2,1,1,1,1,1,0,2073,
scooby_state_638eb0|61|1 2062,3,1,0,0,1,0,2,0,1,0,0,0,0,3,2073,
scooby_state_638ec0|27|1 2056,2,2,2,2,2,1,0,0,1,0,1,0,1,3,2073,
scooby_state_638ebd|28|1 1706,2,3,1,0,1,3,1,1,2,1,345,4,1,2,2073,
scooby_state_638ed1|5|1 2059,0,2,2,0,0,1,1,2,2,1,0,0,2,1,2073,
scooby_state_638ebd|58|2 1720,2,3,3,4,2,1,4,2,4,3,311,6,4,4,2073,
scooby_state_638ebd|10|-1 2051,3,0,2,2,2,0,1,3,1,2,3,1,0,2,2073,
scooby_state_638ebd|30|1 1699,2,3,1,1,2,0,3,3,2,0,355,1,0,1,2073,
scooby_state_638ebd|4|-1 1898,2,2,4,9,4,0,3,0,2,2,140,2,1,4,2073,
scooby_state_638ebd|15|-2 1729,266,7,6,4,6,6,3,3,5,3,9,6,5,15,2073,
scooby_state_638ebd|38|1 2059,1,1,1,1,1,0,1,2,0,1,2,1,0,2,2073,
scooby_state_638ec0|15|1 2047,3,1,3,2,1,2,0,1,2,1,6,1,1,2,2073,
scooby_state_638ebd|52|-1 2049,1,2,2,3,1,2,1,1,1,1,1,2,2,4,2073,
scooby_state_638ec0|55|-2 2067,0,0,3,0,0,0,0,1,0,2,0,0,0,0,2073,
scooby_state_638ec0|51|1 2059,3,0,1,1,0,2,0,1,0,0,1,2,1,1,2072,
scooby_state_638eb0|62|1 2058,1,2,1,0,1,0,1,0,0,2,0,0,1,2,2069,
scooby_state_638ed1|2|1 2053,0,4,0,1,0,1,2,0,2,0,0,1,3,1,2068,
scooby_state_638eb0|0|0 1594,18,62,102,15,17,18,24,21,15,23,2,78,33,46,2068,
scooby_state_638ebd|16|1 2058,0,0,0,2,1,1,0,0,0,1,0,0,0,3,2066,
scooby_state_638ebd|57|-1 1947,1,0,1,1,0,1,2,1,3,1,105,2,0,1,2066,
scooby_state_638ebd|15|1 1954,0,0,1,1,3,0,1,1,1,1,94,3,2,0,2062,
scooby_state_638eb0|50|1 2047,0,1,0,3,0,2,2,0,0,0,1,2,0,1,2059,
scooby_state_638eb0|31|1 2037,2,0,3,0,2,1,1,0,0,0,2,0,1,1,2050,
scooby_state_638eb0|49|1 2034,2,2,0,2,1,0,1,1,0,1,0,0,0,2,2046,
scooby_state_638eb0|35|1 2032,2,1,0,2,0,2,1,0,1,0,0,2,0,1,2044,
scooby_state_638ec0|39|-2 1818,138,52,3,4,3,4,2,2,2,2,4,3,6,0,2043,
scooby_state_638ebd|32|1 1921,0,1,0,0,0,2,0,1,2,1,106,0,0,2,2036,
scooby_state_638ec0|60|-1 2021,1,0,0,0,1,1,1,3,0,1,1,0,0,1,2031,
scooby_state_638ec0|58|-1 2013,0,0,0,0,0,1,0,0,2,1,2,0,0,0,2019,
scooby_state_64cc6c|1|0 1995,0,0,0,0,0,0,0,0,0,1,0,1,0,1,1998,
scooby_state_638ec0|1|-1 1973,3,2,3,1,1,1,1,2,0,0,5,1,1,2,1996,
scooby_state_638ebd|1|-1 1749,0,1,3,0,1,0,0,1,0,0,234,3,0,3,1995,
scooby_state_638ebd|52|1 1925,2,0,3,0,1,0,1,2,1,1,5,1,0,1,1943,
scooby_state_638ebd|22|1 1723,0,1,0,0,0,2,0,0,1,1,205,1,0,2,1936,
scooby_state_638ec0|50|-1 1898,3,3,3,1,1,0,0,0,1,0,4,2,1,1,1918,
scooby_state_638ec0|45|-1 1883,0,5,1,1,2,3,1,4,1,1,6,2,1,2,1913,
scooby_state_638ebd|2|-1 1856,2,3,3,4,1,1,2,2,3,0,2,1,0,3,1883,
scooby_state_64cc6c|28|1 1829,0,1,0,0,0,0,0,0,0,0,0,0,0,1,1831,
scooby_state_64cc6c|27|1 1824,0,0,1,0,1,0,0,0,0,0,0,0,0,1,1827,
scooby_state_638ebd|26|1 1810,1,3,0,0,0,0,0,1,0,1,0,1,0,1,1818,
scooby_state_638ec0|50|1 1785,0,2,7,1,0,0,2,0,0,1,1,0,1,1,1801,
scooby_state_64cc6c|17|1 1780,1,0,0,0,0,0,0,0,0,0,0,0,1,1,1783,
scooby_state_64cc6c|18|1 1766,0,0,1,0,1,0,0,1,2,0,0,1,0,0,1772,
scooby_state_638ed1|32|1 1721,0,6,0,0,2,0,0,1,2,1,0,0,4,2,1739,
scooby_state_64cc6c|22|1 1719,1,0,0,0,0,0,0,0,0,0,0,0,0,1,1721,
scooby_state_638ebd|35|1 1400,2,2,3,1,3,1,2,3,0,0,284,5,1,2,1709,
scooby_state_64cc6c|23|1 1703,0,0,1,0,0,0,1,0,0,0,0,0,0,1,1706,
scooby_state_64cc6c|45|2 1662,0,0,0,1,0,0,0,0,0,0,1,0,1,0,1665,
scooby_state_638ebd|52|-2 1589,47,3,1,1,2,3,3,0,2,0,7,2,0,1,1661,
scooby_state_638ebd|50|1 1600,1,1,0,2,0,1,0,0,1,2,44,0,1,1,1654,
scooby_state_638ec0|59|-1 1619,0,3,1,1,1,2,2,1,1,0,3,4,2,1,1641,
scooby_state_406b41|45|1 1441,15,65,16,8,7,10,7,6,6,5,14,2,6,17,1625,
scooby_state_5e5b40|45|0 246,16,256,108,40,29,46,16,16,17,16,568,165,8,76,1623,
scooby_state_5a0b40|45|1 1620,1,0,1,0,0,0,0,0,0,1,0,0,0,0,1623,
scooby_state_5e1b43|45|-7 993,51,122,56,52,47,15,30,29,27,29,16,46,11,97,1621,
scooby_state_5e0b41|45|1 201,7,366,17,15,14,8,8,7,7,7,910,27,4,22,1620,
scooby_state_5dcb43|45|1 399,4,22,1,3,156,6,5,5,4,3,960,44,0,8,1620,
scooby_state_489425|16|1 1617,2,0,0,0,0,0,0,0,0,0,0,1,0,0,1620,
scooby_state_489447|17|1 71,25,15,8,25,2,8,27,27,26,24,1145,93,83,41,1620,
scooby_state_5e0b38|44|3 32,18,0,45,6,207,18,16,16,16,17,63,1125,5,36,1620,
scooby_state_638450|17|-9 409,52,36,33,5,17,11,3,3,14,3,1012,4,4,13,1619,
scooby_state_5e1d00|52|8 41,0,1,2,2,3,4,3,3,3,4,3,5,1535,10,1619,
scooby_state_5dc6b0|26|-19 1335,2,1,0,0,125,1,3,4,4,5,49,3,80,7,1619,
scooby_state_5a0b83|46|1 64,0,57,1,2,2,1,2,2,2,1,1485,0,0,0,1619,
scooby_state_7d3cb0|50|0 1219,26,6,28,28,25,32,18,18,21,16,29,84,34,34,1618,
scooby_state_5dcb18|44|3 1617,0,0,0,0,0,1,0,0,0,0,0,0,0,0,1618,
scooby_state_7b3446|17|1 272,38,63,16,14,1,21,18,16,16,16,996,81,20,30,1618,
scooby_state_5e4442|17|1 695,489,29,15,7,38,35,35,37,34,34,30,19,52,69,1618,
scooby_state_550a43|41|24 1434,59,1,0,1,1,2,0,0,0,0,76,43,0,0,1617,
scooby_state_489140|5|-12 1494,0,69,3,2,3,2,4,5,8,9,0,1,2,15,1617,
scooby_state_5a0d06|52|6 766,0,64,1,0,27,21,0,0,0,1,0,0,737,0,1617,
scooby_state_4b5b93|46|1 1291,15,9,183,0,0,1,0,0,0,0,116,0,0,1,1616,
scooby_state_4b5b40|45|1 1615,0,0,0,0,0,0,0,0,1,0,0,0,0,0,1616,
scooby_state_4b5b00|44|3 137,44,177,21,30,18,22,19,19,19,18,11,967,36,78,1616,
scooby_state_64cd00|52|2 1093,11,1,10,136,116,19,22,20,24,22,50,22,12,58,1616,
scooby_state_548680|26|0 622,18,41,23,59,302,33,64,55,61,59,145,20,51,63,1616,
scooby_state_5e7d02|52|2 684,29,258,2,9,169,15,12,12,12,12,322,26,25,28,1615,
scooby_state_495160|5|-21 1157,0,0,110,22,4,27,28,21,25,23,133,20,12,33,1615,
scooby_state_6383c2|15|-26 1,0,2,14,2,1591,2,0,1,0,0,0,1,0,1,1615,
scooby_state_550ca0|50|9 1510,44,0,0,19,29,1,0,1,0,0,10,0,0,0,1614,
scooby_state_550b2a|44|-6 836,3,168,174,34,169,0,4,0,0,0,124,1,86,14,1613,
scooby_state_644b40|45|29 702,8,24,18,192,218,5,17,19,15,17,261,33,8,75,1612,
scooby_state_5e7ca7|50|9 443,42,6,4,57,162,63,27,27,28,27,531,51,59,82,1609,
scooby_state_498410|16|1 1602,0,0,0,0,0,0,0,0,0,0,1,0,0,0,1603,
scooby_state_7b1472|17|2 406,3,243,151,24,103,39,27,30,28,28,367,5,115,33,1602,
scooby_state_498441|17|1 974,6,2,558,1,4,9,0,1,0,2,0,7,34,4,1602,
scooby_state_7b142a|16|-1 1170,17,223,29,10,12,21,59,11,13,6,12,3,3,12,1601,
scooby_state_497d30|52|0 1349,37,34,5,14,9,2,12,11,11,10,47,5,18,29,1593,
scooby_state_5dad20|52|0 1352,4,93,16,5,5,5,3,15,3,3,69,4,6,9,1592,
scooby_state_486160|5|0 65,25,15,11,43,819,35,25,27,17,26,331,14,19,107,1579,
scooby_state_638ebd|5|-1 1569,1,0,2,1,1,0,0,1,0,0,1,1,0,1,1578,
scooby_state_638ec0|61|1 1563,0,0,0,0,1,0,2,1,0,0,0,0,0,0,1567,
scooby_state_7d2230|8|0 895,24,175,31,38,4,42,34,39,38,32,77,18,44,75,1566,
scooby_state_4b1220|8|0 254,54,463,7,36,1,26,36,37,40,36,413,16,88,55,1562,
scooby_state_5e0a50|41|0 4,1,1471,1,0,0,1,0,1,0,0,0,1,0,0,1480,
scooby_state_5e4420|16|0 1470,0,0,0,0,1,0,0,1,0,0,0,1,0,0,1473,
scooby_state_400530|1|0 936,212,71,3,9,16,11,10,6,8,87,2,3,77,17,1468,
scooby_state_638ec0|42|1 1459,0,0,4,0,0,1,1,1,0,1,0,0,0,0,1467,
scooby_state_5dca40|41|0 13,0,1435,1,0,0,2,1,2,1,1,2,2,2,1,1463,
scooby_state_498505|2|1 864,2,54,9,0,1,0,1,0,0,0,528,0,1,0,1460,
scooby_state_4a53d0|15|0 720,30,12,18,26,24,27,29,29,35,28,93,192,145,51,1459,
scooby_state_638ec0|7|1 1431,2,1,2,1,1,2,0,1,3,0,5,1,0,3,1453,
scooby_state_7b13c2|15|0 1448,1,1,0,0,1,0,0,0,0,0,0,0,0,0,1451,
scooby_state_638ec0|28|1 1420,1,1,2,2,2,2,0,2,2,1,2,1,1,2,1441,
scooby_state_638ec0|30|1 1418,1,2,1,1,1,2,1,0,3,0,2,1,0,3,1436,
scooby_state_64e140|5|0 1145,7,10,114,13,0,19,17,15,16,15,14,14,8,26,1433,
scooby_state_638ec0|7|-1 1427,0,1,0,0,1,0,0,0,1,0,0,1,1,1,1433,
scooby_state_4b59d1|34|0 1285,1,1,103,1,3,1,1,4,3,1,3,20,1,2,1430,
scooby_state_5e2b60|45|40 458,0,1,963,1,0,0,0,3,0,0,0,1,1,1,1429,
scooby_state_678230|8|0 806,7,4,17,16,9,14,44,34,49,51,258,22,24,70,1425,
scooby_state_638ec0|47|1 1423,0,0,0,0,0,0,1,0,0,0,0,1,0,0,1425,
scooby_state_677200|8|0 752,33,42,16,47,123,38,39,36,31,38,88,55,24,62,1424,
scooby_state_638d00|52|37 1039,0,141,0,0,0,0,1,0,0,0,108,56,77,0,1422,
scooby_state_638ed1|60|1 1415,0,0,0,0,1,1,0,0,0,0,1,0,0,2,1420,
scooby_state_64cc82|50|0 1305,38,0,60,4,0,1,0,2,3,1,0,0,0,6,1420,
scooby_state_638ec0|44|1 1402,1,1,1,1,1,3,1,0,2,0,2,1,0,3,1419,
scooby_state_5a0b30|44|0 1411,0,0,0,0,1,0,0,0,0,0,7,0,0,0,1419,
scooby_state_638ebd|9|1 1281,1,1,0,0,1,1,2,1,1,0,125,1,0,1,1416,
scooby_state_638ec0|49|1 1396,1,1,0,1,0,0,1,0,0,0,1,2,0,0,1403,
scooby_state_638ec0|12|1 1395,1,0,1,0,0,0,1,0,0,0,3,0,0,0,1401,
scooby_state_638ec0|63|1 1395,0,0,0,0,0,0,2,0,0,0,0,0,0,1,1398,
scooby_state_638ec0|21|1 1390,1,2,0,1,1,0,0,1,0,0,0,0,1,0,1397,
scooby_state_644420|16|-29 796,0,0,0,23,39,8,14,15,21,13,0,438,24,3,1394,
scooby_state_638ec0|13|1 1373,1,2,0,1,3,0,0,0,1,0,2,1,0,2,1386,
scooby_state_638ebd|49|-1 1283,1,0,1,3,0,2,0,0,0,0,91,1,1,2,1385,
scooby_state_638ebd|9|-1 1370,0,0,1,0,1,2,0,1,0,0,4,1,3,2,1385,
scooby_state_638ebd|41|-1 1364,2,0,0,2,1,2,0,2,1,1,2,1,3,2,1383,
scooby_state_638ebd|43|1 1248,1,0,0,0,0,0,1,0,1,0,128,1,1,2,1383,
scooby_state_638ebd|49|-2 1177,129,10,4,12,4,8,4,8,5,2,8,4,2,6,1383,
scooby_state_638ebd|8|-1 1373,0,2,1,0,1,0,1,2,0,0,2,0,0,1,1383,
scooby_state_638ebd|12|-1 1376,0,0,0,0,0,2,0,0,0,0,1,1,2,1,1383,
scooby_state_638ebd|50|-1 1364,0,3,4,3,0,1,1,0,1,1,1,1,0,2,1382,
scooby_state_638ebd|4|1 1376,1,0,0,2,0,0,0,0,0,1,0,0,1,1,1382,
scooby_state_638ebd|40|1 1233,2,0,0,1,2,0,0,0,0,0,136,6,1,1,1382,
scooby_state_638ed1|30|1 1371,0,3,1,0,0,1,0,1,0,1,0,1,3,0,1382,
scooby_state_638ec0|26|1 1363,1,0,1,1,2,2,0,1,3,1,3,1,1,2,1382,
scooby_state_638ec0|55|1 1377,1,0,0,0,0,1,0,2,0,0,0,0,0,1,1382,
scooby_state_638ebd|31|1 1266,1,1,0,0,0,1,0,0,1,1,107,1,0,3,1382,
scooby_state_638ec0|37|-1 1322,4,4,0,7,5,4,2,2,2,5,10,2,6,7,1382,
scooby_state_638ec0|6|2 1352,8,0,0,1,3,1,0,1,0,0,0,16,0,0,1382,
scooby_state_638eb0|27|1 1373,1,0,3,0,1,1,1,0,0,1,0,0,0,1,1382,
scooby_state_638ebd|10|1 1266,1,2,0,1,1,0,1,1,1,0,106,1,1,0,1382,
scooby_state_638ec0|58|3 1380,0,0,0,0,0,0,0,0,1,0,0,0,1,0,1382,
scooby_state_638ebd|34|3 255,2,2,7,0,11,1,0,0,1,2,1099,1,0,1,1382,
scooby_state_638ebd|37|-1 1376,0,0,0,0,0,3,0,3,0,0,0,0,0,0,1382,
scooby_state_638eb0|59|2 630,8,8,19,7,4,10,9,10,8,7,628,7,6,21,1382,
scooby_state_638ebd|28|2 1137,3,0,0,0,0,0,2,4,1,1,227,1,1,5,1382,
scooby_state_638eb0|24|1 1376,1,1,1,0,0,0,0,0,1,1,0,0,0,1,1382,
scooby_state_638ebd|28|-1 1259,2,0,1,0,0,1,0,1,0,2,115,0,0,1,1382,
scooby_state_638ec0|42|-1 1356,3,2,3,3,1,0,1,0,1,1,4,2,1,4,1382,
scooby_state_638ebd|38|-1 1332,2,1,2,2,1,0,0,3,2,0,35,0,0,2,1382,
scooby_state_638eb0|16|1 1371,0,1,0,2,0,0,1,0,1,3,0,0,1,2,1382,
scooby_state_638ec0|4|1 1376,1,0,0,1,0,0,2,0,1,0,0,0,1,0,1382,
scooby_state_638ebd|61|3 274,0,1,5,1,6,1,0,1,0,0,1091,1,0,1,1382,
scooby_state_638ec0|57|-1 1358,2,2,1,2,0,0,2,1,2,1,2,3,1,5,1382,
scooby_state_638ebd|2|1 1369,0,0,0,3,1,3,1,0,0,1,0,2,1,1,1382,
scooby_state_638eb0|34|1 1369,1,1,2,2,1,0,1,0,0,1,0,1,2,1,1382,
scooby_state_638ebd|34|-1 1266,1,0,0,1,0,0,0,0,1,2,109,1,0,1,1382,
scooby_state_638ebd|11|1 1257,2,0,0,1,0,1,0,2,0,0,116,1,0,2,1382,
scooby_state_638ec0|2|-1 1372,1,0,0,0,0,0,1,0,3,1,0,1,0,3,1382,
scooby_state_638ec0|29|1 1379,0,0,0,1,0,0,1,1,0,0,0,0,0,0,1382,
scooby_state_638ebd|46|-1 1192,2,2,3,2,1,1,1,1,1,0,173,0,0,3,1382,
scooby_state_638ebd|61|-1 1264,0,0,0,3,2,1,1,0,2,1,106,1,0,1,1382,
scooby_state_638ebd|24|2 1257,2,0,0,1,0,0,2,2,1,1,110,1,3,2,1382,
scooby_state_638ebd|42|3 230,0,1,8,0,12,2,0,0,1,1,1125,1,0,1,1382,
scooby_state_638ec0|63|33 1377,0,1,0,0,0,0,0,0,0,0,2,0,2,0,1382,
scooby_state_638ebd|16|-1 1366,1,2,2,2,2,0,3,0,0,0,1,0,1,2,1382,
scooby_state_638ebd|26|-1 1253,0,0,1,0,0,0,0,1,0,0,124,1,1,1,1382,
scooby_state_638ec0|13|-1 1350,2,2,0,3,3,2,1,2,1,3,5,1,4,3,1382,
scooby_state_638ec0|23|2 1341,10,0,0,0,3,0,0,0,1,0,0,27,0,0,1382,
scooby_state_638ebd|31|-2 1289,76,3,0,5,1,0,1,1,1,0,2,3,0,0,1382,
scooby_state_638ec0|8|-1 1376,1,1,0,1,0,1,0,1,0,0,0,1,0,0,1382,
scooby_state_638ec0|32|13 894,32,36,55,16,54,8,14,16,16,12,20,54,119,36,1382,
scooby_state_638ec0|51|-2 1293,56,7,1,1,0,2,0,3,1,2,1,3,6,5,1381,
scooby_state_638ec0|29|-2 1282,62,7,2,1,1,2,0,3,1,3,2,4,6,4,1380,
scooby_state_638ed1|42|1 1371,2,1,0,2,1,0,1,1,0,0,0,0,1,0,1380,
scooby_state_638ebd|13|13 1327,2,0,3,0,0,3,1,0,0,0,0,22,16,5,1379,
scooby_state_638ebd|38|13 1357,1,0,1,0,0,2,3,2,5,0,2,3,2,1,1379,
scooby_state_638ed1|54|1 1364,1,2,0,2,1,0,0,3,1,0,0,0,3,1,1378,
scooby_state_638ec0|56|3 1376,1,0,0,0,0,0,0,0,0,0,0,0,0,1,1378,
scooby_state_638ebd|48|-1 1371,1,0,1,2,1,0,1,0,0,1,0,0,0,0,1378,
scooby_state_638ebd|63|1 1373,1,0,0,1,0,0,0,1,0,1,0,0,0,1,1378,
scooby_state_638ebd|40|-1 1316,0,1,1,1,0,0,0,1,0,0,55,2,0,1,1378,
scooby_state_638ebd|27|-1 1283,1,0,1,4,0,2,0,0,1,0,80,2,1,2,1377,
scooby_state_638ebd|48|14 1347,1,0,3,3,4,0,2,1,2,2,0,11,0,0,1376,
scooby_state_638ebd|44|1 1261,1,0,1,1,1,0,1,1,1,0,106,0,0,0,1374,
scooby_state_550400|16|-28 1365,2,1,0,0,1,0,0,1,0,1,1,0,1,1,1374,
scooby_state_638eb0|26|1 1364,0,1,0,0,0,2,0,0,0,1,1,3,0,1,1373,
scooby_state_638ebd|41|13 1311,2,2,2,3,0,3,2,2,0,4,0,28,7,4,1370,
scooby_state_406a44|41|-4 54,216,1085,13,0,0,1,0,0,0,0,0,0,0,0,1369,
scooby_state_638eb0|40|1 1350,0,1,1,0,1,1,0,0,0,1,0,0,0,2,1357,
scooby_state_638eb0|43|1 1346,0,0,0,2,0,1,0,0,0,1,2,2,0,2,1356,
scooby_state_5e33c1|40|8 1310,0,0,1,0,0,0,0,0,0,0,43,0,0,0,1354,
scooby_state_498441|34|0 8,4,3,1267,5,1,4,3,3,2,4,34,4,4,6,1352,
scooby_state_638eb0|37|1 1342,0,0,0,1,0,1,0,2,0,0,0,2,0,0,1348,
scooby_state_638ed1|14|1 1338,0,1,0,0,0,0,0,1,1,1,0,0,2,1,1345,
scooby_state_638eb0|56|1 1337,0,1,0,1,1,0,0,2,0,1,0,1,1,0,1345,
scooby_state_638ebd|59|18 1328,0,0,7,0,1,0,0,0,1,0,0,0,6,2,1345,
scooby_state_5dff02|34|14 869,35,38,12,17,18,23,27,25,19,16,155,19,18,52,1343,
scooby_state_638eb0|44|1 1335,2,1,0,2,0,0,0,0,0,0,1,1,1,0,1343,
scooby_state_4b5a40|41|0 32,0,1310,0,0,0,0,0,0,0,0,0,0,0,0,1342,
scooby_state_638ebd|37|3 282,1,0,6,1,8,0,1,0,1,1,1022,2,0,4,1329,
scooby_state_4983e1|54|0 1,1,1,1190,1,116,1,4,2,2,1,4,1,1,2,1328,
scooby_state_49c3d0|15|0 1314,0,0,0,0,0,0,1,0,0,0,0,0,0,1,1316,
scooby_state_638ec0|46|-2 1067,137,48,1,2,7,2,4,1,2,1,4,2,25,6,1309,
scooby_state_644b40|45|30 1181,1,0,0,0,92,0,2,1,0,0,0,0,2,0,1279,
scooby_state_638788|20|0 24,51,316,92,155,16,35,35,32,38,38,276,39,62,64,1273,
scooby_state_5e1b80|46|1 3,0,2,2,1,7,1,1,0,1,1,1237,2,2,2,1262,
scooby_state_638ec0|36|-1 1211,1,30,0,0,1,2,2,0,1,2,5,1,0,4,1260,
scooby_state_6493c0|15|-26 199,332,16,117,42,43,42,49,70,57,40,128,34,43,44,1256,
scooby_state_638ebd|43|-1 1242,0,0,0,1,1,2,0,1,1,1,2,1,2,1,1255,
scooby_state_5e2140|5|-45 2,9,50,52,438,56,49,51,61,54,51,46,60,3,273,1255,
scooby_state_638ec0|3|-2 1140,61,10,1,3,2,3,0,3,1,2,3,6,9,9,1253,
scooby_state_54ed10|52|0 122,39,191,83,30,1,15,23,21,22,21,493,35,88,62,1246,
scooby_state_7b3142|5|0 1,4,0,0,2,1234,0,0,1,0,0,0,0,0,0,1242,
scooby_state_4983e1|20|-4 0,2,3,183,1,1038,1,4,1,3,0,1,0,0,0,1237,
scooby_state_638ebd|53|14 1216,3,0,2,2,2,0,1,1,1,1,0,6,0,0,1235,
scooby_state_64cc60|33|0 1219,0,0,0,1,0,0,0,0,0,0,0,0,1,0,1221,
scooby_state_649a45|41|26 0,454,489,12,32,0,42,63,12,11,13,1,23,29,35,1216,
scooby_state_495684|26|0 74,16,5,13,15,17,17,20,19,17,18,629,290,17,46,1213,
scooby_state_64cc6c|24|4 1192,0,0,0,1,0,0,0,0,0,0,1,0,0,0,1194,
scooby_state_5e444b|1|-30 11,39,44,24,14,14,33,37,47,421,37,39,7,21,399,1187,
scooby_state_7d2253|35|0 1180,0,2,1,0,0,0,0,0,0,0,0,0,0,0,1183,
scooby_state_406b1f|44|0 1177,0,1,0,0,0,0,0,0,0,0,0,0,1,0,1179,
scooby_state_5e62d8|47|1 231,8,1,80,22,11,2,6,7,7,7,4,0,767,21,1174,
scooby_state_5e3385|32|1 1167,0,0,0,0,1,0,0,0,1,0,1,0,0,0,1170,
scooby_state_638ebd|5|-2 957,89,3,2,1,3,2,1,1,2,3,96,2,2,4,1168,
scooby_state_5e2b8b|46|-1 50,0,0,0,1,5,0,0,0,0,0,0,0,1111,0,1167,
scooby_state_48910b|39|-1 67,2,0,0,0,0,1,1,1,1,0,2,1075,1,2,1153,
scooby_state_489360|24|0 1149,0,0,0,1,0,0,0,0,0,1,1,0,0,0,1152,
scooby_state_64cc6c|43|3 1132,0,0,0,0,0,0,0,0,0,0,1,0,0,0,1133,
scooby_state_638ebd|56|1 1105,2,0,0,1,1,1,0,0,0,2,0,0,2,1,1115,
scooby_state_5e394b|47|0 3,5,44,5,6,0,5,2,3,3,3,1014,2,8,9,1112,
scooby_state_64cc6c|42|2 1110,0,0,0,0,0,0,0,0,0,0,0,0,0,0,1110,
scooby_state_485f70|3|0 524,28,8,74,12,48,7,13,10,8,10,322,13,1,20,1098,
scooby_state_638ec0|54|2 1092,2,0,0,0,0,0,1,0,0,0,0,1,0,0,1096,
scooby_state_638ec0|53|-1 1077,3,2,3,1,2,0,0,1,0,0,4,0,1,2,1096,
scooby_state_64d0c9|4|0 1068,1,1,2,1,8,1,1,1,0,0,2,2,1,2,1091,
scooby_state_5dfb76|43|0 578,6,57,8,99,70,14,6,4,6,7,164,8,11,45,1083,
scooby_state_495662|7|5 910,5,22,123,1,14,3,0,0,0,1,0,0,0,4,1083,
scooby_state_64cc6c|46|3 1082,0,0,0,0,0,0,0,0,0,0,0,1,0,0,1083,
scooby_state_64a75f|2|0 878,125,0,6,6,7,8,9,4,4,5,10,4,5,8,1079,
scooby_state_64a774|1|-6 6,4,15,989,7,5,3,2,4,4,4,5,23,1,3,1075,
scooby_state_5a136b|34|0 86,7,90,9,9,8,8,6,4,4,5,84,725,10,15,1070,
scooby_state_550b41|45|29 2,6,0,0,1,1,0,0,1,0,0,1056,0,0,0,1067,
scooby_state_638ebd|53|-2 1011,49,0,1,0,0,1,1,1,0,0,1,1,0,0,1066,
scooby_state_638690|26|-26 1044,1,4,1,1,2,1,1,4,1,3,0,0,0,3,1066,
scooby_state_6443d4|51|11 906,2,19,5,9,2,2,6,6,5,7,77,5,1,14,1066,
scooby_state_638ebd|58|-2 1055,5,2,0,0,0,0,0,0,2,0,0,0,0,1,1065,
scooby_state_638ebd|21|14 1061,0,0,1,0,0,0,2,0,1,0,0,0,0,0,1065,
scooby_state_49c016|51|5 5,0,1,0,1054,1,1,0,0,0,0,1,0,0,1,1064,
scooby_state_5e2b8b|38|-2 100,7,1,1,3,57,0,0,1,0,1,0,1,877,0,1049,
scooby_state_489433|14|-1 163,12,15,18,13,7,20,16,14,15,21,422,140,111,60,1047,
scooby_state_5e7a41|41|0 12,0,0,0,2,1022,1,0,0,0,0,0,0,0,2,1039,
scooby_state_4983ee|15|0 1035,1,0,0,0,1,0,0,0,0,0,0,0,0,0,1037,
scooby_state_4b5ab1|35|1 478,23,24,23,22,68,206,23,23,16,16,10,20,29,42,1023,
scooby_state_64cc6c|38|2 1015,0,0,0,0,0,0,0,0,0,0,1,0,0,0,1016,
scooby_state_638eb0|59|1 1006,0,0,0,1,2,0,0,0,1,0,1,0,0,1,1012,
scooby_state_64cc6c|31|3 1001,0,1,1,0,0,0,0,0,2,0,0,0,0,1,1006,
scooby_state_4a5340|13|-2 689,32,67,17,21,8,21,19,17,18,20,0,16,24,36,1005,
scooby_state_4893c0|15|2 1003,0,0,0,0,0,0,0,0,0,0,0,0,0,1,1004,
scooby_state_49c3d0|15|-1 984,0,0,0,0,0,0,0,0,0,0,0,0,0,0,984,
scooby_state_64a766|20|1 969,0,0,0,0,0,0,0,0,0,0,10,0,0,0,979,
scooby_state_5e5b7f|14|0 13,32,52,82,217,206,27,28,32,24,30,23,100,34,79,979,
scooby_state_5e62cd|46|6 968,1,0,0,0,0,0,2,0,0,1,0,0,0,2,974,
scooby_state_64cc6c|7|4 962,1,0,0,1,0,0,0,0,0,0,0,0,0,0,964,
scooby_state_5e7a67|31|17 345,38,41,70,24,0,33,23,25,26,25,65,3,163,68,949,
scooby_state_638ec0|25|-1 897,3,3,1,4,3,2,2,2,2,3,7,3,4,5,941,
scooby_state_64cc6c|34|2 938,0,0,0,1,0,0,0,0,1,0,0,0,0,0,940,
scooby_state_644875|2|-5 221,46,28,108,9,6,54,13,14,17,32,23,14,5,341,931,
scooby_state_639055|46|0 517,0,144,0,0,0,1,1,0,0,0,254,0,0,0,917,
scooby_state_64cc6c|28|2 904,2,0,0,2,1,0,0,0,0,0,0,0,0,0,909,
scooby_state_4984ea|25|5 906,0,0,0,0,0,2,0,0,0,1,0,0,0,0,909,
scooby_state_64cc6c|18|2 902,1,0,0,0,0,0,0,0,0,0,0,0,0,1,904,
scooby_state_64cc6c|49|2 903,0,0,0,0,0,0,0,0,0,0,0,0,0,0,903,
scooby_state_497d51|25|1 894,0,0,0,0,0,0,1,0,0,0,0,1,0,1,897,
scooby_state_5e7cd4|33|0 469,24,1,67,13,153,26,22,25,24,20,5,4,0,39,892,
scooby_state_638ebd|17|1 887,0,1,0,0,0,0,0,0,0,1,0,0,0,1,890,
scooby_state_644664|1|0 854,0,1,32,0,0,0,0,0,0,0,0,2,0,0,889,
scooby_state_638ebd|59|2 753,0,1,0,0,0,0,0,1,0,0,131,1,0,1,888,
scooby_state_6443d4|53|1 685,0,5,2,1,0,0,1,1,0,1,173,18,1,0,888,
scooby_state_5e393d|52|1 732,0,119,0,0,10,0,0,1,0,0,0,0,0,24,886,
scooby_state_64df84|25|0 756,4,0,0,76,9,2,1,1,2,1,18,3,1,3,877,
scooby_state_644140|52|1 1,0,170,696,0,0,0,0,0,0,0,0,0,0,0,867,
scooby_state_5e1b30|44|0 328,24,14,7,42,41,40,22,23,22,23,25,88,31,131,861,
scooby_state_64cc6c|18|3 858,0,0,0,0,0,0,0,1,0,0,0,0,1,0,860,
scooby_state_638a41|41|0 0,0,1,0,1,848,0,0,0,0,0,0,0,0,0,850,
scooby_state_5dcb1e|46|0 844,0,3,0,0,0,2,0,0,0,0,0,0,0,0,849,
scooby_state_5e34c5|33|-14 1,0,53,1,749,1,1,0,0,0,2,29,3,1,2,843,
scooby_state_64cc6c|50|3 839,0,0,1,0,0,1,0,0,0,0,0,0,1,0,842,
scooby_state_4983eb|14|0 675,71,1,1,1,0,1,4,5,4,5,0,7,59,4,838,
scooby_state_5e2c82|50|0 248,17,5,34,18,9,10,11,9,10,11,164,9,238,37,830,
scooby_state_550441|17|1 149,0,0,0,0,4,1,0,0,0,0,673,0,0,0,827,
scooby_state_550400|16|-29 825,0,0,1,0,0,0,0,0,0,0,0,0,0,0,826,
scooby_state_638ebd|30|13 821,0,0,1,0,0,0,0,0,0,1,0,1,0,2,826,
scooby_state_54a470|17|0 171,35,326,21,20,7,19,26,28,24,22,13,14,21,79,826,
scooby_state_64e35e|13|8 555,12,48,7,12,10,1,11,10,7,11,35,66,18,17,820,
scooby_state_638ec0|19|1 810,0,0,0,1,0,0,0,0,0,1,0,0,1,0,813,
scooby_state_497d48|36|-3 218,526,1,1,2,8,0,1,1,1,1,49,2,2,0,813,
scooby_state_644691|7|6 343,8,68,19,34,3,28,26,26,25,24,16,128,15,47,810,
scooby_state_4983eb|24|0 554,121,0,4,1,1,2,2,0,1,1,0,5,96,4,792,
scooby_state_550441|17|-28 171,0,0,0,1,1,0,0,0,0,0,619,0,0,0,792,
scooby_state_4983e1|40|39 11,0,2,76,2,462,230,6,1,0,0,0,0,0,1,791,
scooby_state_4984ea|7|5 784,0,0,0,0,0,2,1,0,0,1,0,0,0,0,788,
scooby_state_638ec0|46|1 782,0,0,0,1,0,0,1,2,0,0,0,0,0,1,787,
scooby_state_5e2c82|50|5 292,40,4,1,16,8,20,8,8,8,7,1,208,144,21,786,
scooby_state_6ee3e0|15|0 661,0,34,48,0,40,0,0,0,0,0,0,1,0,0,784,
scooby_state_644140|43|1 1,0,186,597,0,0,0,0,0,0,0,0,0,0,0,784,
scooby_state_48936e|46|-4 163,3,1,592,1,1,0,1,1,1,1,0,13,2,1,781,
scooby_state_6443d0|15|-2 779,0,0,0,0,0,0,1,0,0,0,0,0,0,0,780,
scooby_state_5a1401|16|1 310,1,0,1,0,0,0,0,0,0,0,414,0,51,0,777,
scooby_state_54ed29|43|1 695,0,0,1,62,5,0,0,0,0,0,3,1,6,3,776,
scooby_state_54a40d|16|0 577,0,81,82,0,0,0,0,0,0,1,31,0,4,0,776,
scooby_state_5e2d47|40|-10 1,1,0,0,0,1,767,1,1,0,1,1,0,1,0,775,
scooby_state_5dfb76|47|1 536,12,3,10,10,3,13,11,9,10,9,9,19,84,26,764,
scooby_state_638a41|41|24 34,0,0,0,0,728,0,0,0,0,0,0,0,1,0,763,
scooby_state_644470|17|0 627,1,77,1,1,0,0,0,0,0,0,0,43,5,0,755,
scooby_state_64cc6c|46|6 748,0,0,1,0,1,0,1,0,0,0,0,0,0,0,751,
scooby_state_5e2c25|15|-31 747,1,1,0,0,0,0,0,0,0,0,0,0,1,0,750,
scooby_state_498ff0|36|4 1,174,564,1,1,1,0,0,2,3,0,0,1,0,1,749,
scooby_state_638ebd|47|-1 717,0,0,0,1,0,0,0,1,0,1,21,1,0,0,742,
scooby_state_5e1b30|44|-2 704,0,29,8,0,0,0,0,0,0,0,0,0,0,0,741,
scooby_state_4890ec|39|5 133,6,7,17,19,287,8,16,13,10,8,8,124,21,60,737,
scooby_state_489340|13|0 2,0,733,0,0,0,0,0,0,0,0,0,0,0,0,735,
scooby_state_638ec0|11|2 728,1,0,0,0,0,0,0,0,0,0,0,1,0,0,730,
scooby_state_5dad25|53|0 38,1,8,2,11,6,22,5,5,6,4,53,272,25,268,726,
scooby_state_4b5b0b|31|-14 423,1,5,2,81,0,12,8,7,8,9,55,19,79,15,724,
scooby_state_5a141a|31|-3 489,11,15,72,7,41,12,8,8,8,8,0,28,5,10,722,
scooby_state_64cc6c|24|3 720,0,0,0,0,0,0,1,0,0,0,0,0,0,0,721,
scooby_state_638ec0|57|1 717,0,0,0,0,0,0,1,0,0,0,0,0,1,0,719,
scooby_state_64cc6c|51|4 719,0,0,0,0,0,0,0,0,0,0,0,0,0,0,719,
scooby_state_7b343f|16|11 717,0,0,0,0,1,0,1,0,0,0,0,0,0,0,719,
scooby_state_64cc6c|4|0 714,0,0,0,0,1,0,0,0,0,0,0,0,0,1,716,
scooby_state_638ec0|53|2 711,0,0,0,0,0,0,0,0,0,0,0,1,0,0,712,
scooby_state_638eb0|52|-1 313,44,2,132,20,49,12,10,11,12,12,2,23,14,56,712,
scooby_state_5dfb83|14|-2 1,13,526,6,11,46,11,10,7,9,11,8,10,25,15,709,
scooby_state_638ec0|27|-1 692,1,3,0,1,0,2,1,0,1,1,0,1,0,3,706,
scooby_state_638ebd|49|1 690,0,1,1,0,0,1,0,0,1,0,11,0,0,1,706,
scooby_state_638ebd|13|-1 695,0,0,0,0,0,3,0,0,0,0,1,2,2,1,704,
scooby_state_5a1350|13|0 136,217,2,22,18,103,19,25,27,24,14,20,27,5,41,700,
scooby_state_638ebd|54|1 585,1,1,0,0,1,1,0,0,0,0,107,1,1,1,699,
scooby_state_638ec0|33|1 694,0,1,0,1,0,0,0,0,0,0,1,0,0,0,697,
scooby_state_638ed1|32|0 651,5,10,1,4,0,2,4,2,2,0,5,2,1,6,695,
scooby_state_638ebd|24|10 693,0,0,0,0,0,0,1,0,0,0,0,1,0,0,695,
scooby_state_638ec0|40|3 691,0,0,0,1,0,0,1,0,0,0,1,0,0,0,694,
scooby_state_638ec0|39|2 693,0,0,0,0,0,0,0,0,0,0,0,0,0,0,693,
scooby_state_638ebd|23|3 183,0,0,2,0,4,1,0,0,1,0,502,0,0,0,693,
scooby_state_6386ae|32|0 13,0,0,0,0,0,0,0,0,0,0,680,0,0,0,693,
scooby_state_638ec0|6|-1 686,1,1,0,0,1,0,1,0,0,0,1,1,1,0,693,
scooby_state_638eb0|4|2 290,5,4,7,6,4,7,1,6,8,5,327,6,6,10,692,
scooby_state_64cce6|28|-1 315,0,373,0,0,0,0,1,0,0,0,3,0,0,0,692,
scooby_state_638ec0|47|-1 682,1,0,0,1,0,0,1,1,1,1,0,1,1,2,692,
scooby_state_64cc3a|29|4 4,0,23,199,0,4,1,1,0,0,0,458,1,0,1,692,
scooby_state_638ec0|51|2 689,0,0,0,0,1,1,0,0,0,0,0,1,0,0,692,
scooby_state_638ec0|54|4 690,1,0,1,0,0,0,0,0,0,0,0,0,0,0,692,
scooby_state_638ec0|52|-1 660,3,3,4,2,1,0,2,4,1,1,5,1,2,3,692,
scooby_state_638ec0|48|-1 662,2,4,1,2,1,2,2,1,2,1,3,2,2,5,692,
scooby_state_638ebd|23|-2 617,62,2,0,1,0,0,1,3,0,0,3,2,0,0,691,
scooby_state_638ebd|29|-2 574,82,1,4,2,3,3,2,1,2,1,4,2,1,9,691,
scooby_state_638ec0|36|-3 642,15,0,5,3,18,1,0,0,2,2,0,0,0,3,691,
scooby_state_638ebd|0|-44 641,6,0,0,6,3,5,10,3,5,2,6,0,1,3,691,
scooby_state_638ec0|18|4 662,0,1,6,0,0,0,0,0,0,0,19,3,0,0,691,
scooby_state_638ebd|3|-1 684,0,0,0,0,0,2,0,0,0,0,1,1,2,1,691,
scooby_state_638ec0|16|-1 678,2,2,3,1,1,0,0,0,0,0,2,0,1,1,691,
scooby_state_638ebd|53|3 1,0,0,6,2,9,0,1,0,1,1,665,1,0,4,691,
scooby_state_638ec0|4|2 689,0,0,0,1,0,0,0,0,0,0,0,0,1,0,691,
scooby_state_638ec0|33|-16 691,0,0,0,0,0,0,0,0,0,0,0,0,0,0,691,
scooby_state_638ebd|33|2 465,2,3,3,2,2,1,2,1,3,2,198,2,3,2,691,
scooby_state_638ebd|32|-2 637,47,1,0,1,0,0,1,2,0,0,1,1,0,0,691,
scooby_state_638ec0|61|-1 685,1,0,0,0,0,0,1,0,1,1,0,1,0,1,691,
scooby_state_638ec0|57|43 691,0,0,0,0,0,0,0,0,0,0,0,0,0,0,691,
scooby_state_638ec0|15|-1 682,1,0,0,0,0,0,1,0,3,0,0,1,1,2,691,
scooby_state_638ec0|8|-2 602,76,1,1,0,1,1,2,0,1,0,1,0,2,3,691,
scooby_state_638ed1|0|-10 376,0,5,10,1,3,4,10,13,7,9,122,89,11,31,691,
scooby_state_638ebd|14|13 671,1,0,1,0,0,2,3,2,5,0,0,3,2,1,691,
scooby_state_638ebd|50|-2 479,88,3,3,1,3,2,1,1,2,3,96,3,2,4,691,
scooby_state_495662|59|5 543,1,23,104,1,11,3,0,0,0,1,0,0,0,4,691,
scooby_state_638eb0|59|0 560,1,22,35,9,1,3,3,2,8,2,0,21,14,10,691,
scooby_state_638ebd|61|2 573,0,0,0,0,1,0,0,1,0,0,115,1,0,0,691,
scooby_state_638ebd|8|1 579,1,1,0,0,1,0,1,1,1,0,106,0,0,0,691,
scooby_state_638ec0|48|33 680,0,1,0,0,0,0,0,0,0,0,10,0,0,0,691,
scooby_state_638ec0|43|2 691,0,0,0,0,0,0,0,0,0,0,0,0,0,0,691,
scooby_state_638ebd|56|2 423,2,3,2,2,0,4,1,1,1,1,240,5,3,3,691,
scooby_state_638ec0|22|15 691,0,0,0,0,0,0,0,0,0,0,0,0,0,0,691,
scooby_state_638ebd|6|-3 248,241,1,68,3,4,7,9,5,6,8,65,6,5,15,691,
scooby_state_638ec0|21|-15 689,0,0,1,0,0,0,0,0,0,0,1,0,0,0,691,
scooby_state_638ec0|60|-2 599,78,2,0,0,1,1,2,0,1,1,1,0,2,3,691,
scooby_state_638ec0|46|2 690,1,0,0,0,0,0,0,0,0,0,0,0,0,0,691,
scooby_state_638eb0|12|2 281,6,10,6,6,3,2,6,3,4,6,337,8,4,9,691,
scooby_state_638ebd|20|2 468,3,2,1,1,0,5,1,2,1,2,193,4,3,5,691,
scooby_state_638ec0|59|-2 584,89,3,2,0,1,1,2,0,2,0,2,0,2,3,691,
scooby_state_638ed1|51|0 648,1,5,3,1,2,2,1,5,4,4,3,5,3,4,691,
scooby_state_638ebd|33|-1 684,1,0,1,1,1,0,0,0,0,0,1,1,0,1,691,
scooby_state_638ed1|19|-2 0,622,1,1,1,2,1,1,5,2,1,8,28,16,2,691,
scooby_state_638ec0|25|-2 365,131,146,2,4,5,3,2,1,2,2,4,3,21,0,691,
scooby_state_638ec0|8|-53 177,44,0,18,21,11,19,34,30,31,33,175,25,2,71,691,
scooby_state_638ebd|30|-2 482,88,3,2,1,3,2,1,1,1,3,96,2,2,4,691,
scooby_state_638ebd|15|14 688,0,0,0,0,0,0,1,1,0,0,0,1,0,0,691,
scooby_state_638ec0|44|-17 651,0,23,0,0,0,0,0,0,0,0,0,11,6,0,691,
scooby_state_638ebd|22|9 363,3,2,6,9,9,12,10,13,9,10,219,9,6,11,691,
scooby_state_638ebd|2|2 606,0,0,0,1,0,0,0,1,1,0,81,1,0,0,691,
scooby_state_638ec0|48|-2 471,138,40,0,2,6,2,3,1,1,1,4,2,14,6,691,
scooby_state_638ebd|51|27 3,0,0,0,1,1,0,0,0,0,1,684,0,0,1,691,
scooby_state_638ed1|0|-2 0,620,1,1,1,2,1,3,5,2,1,8,28,16,2,691,
scooby_state_638ebd|29|-1 688,0,0,0,0,1,0,0,1,0,0,0,0,0,1,691,
scooby_state_638ec0|46|13 446,16,19,28,8,27,4,8,8,8,6,9,27,60,17,691,
scooby_state_638ec0|10|2 690,0,1,0,0,0,0,0,0,0,0,0,0,0,0,691,
scooby_state_638ed1|16|0 648,1,5,3,1,2,2,1,5,4,4,3,5,3,4,691,
scooby_state_638ebd|23|-3 377,163,0,68,2,3,7,9,6,7,8,17,6,5,13,691,
scooby_state_638ec0|36|-2 595,77,3,1,0,2,1,2,0,1,0,2,0,4,3,691,
scooby_state_638ebd|42|2 688,0,0,0,0,0,0,0,1,0,0,0,2,0,0,691,
scooby_state_638ebd|26|3 498,0,0,0,0,0,0,0,0,1,0,189,2,1,0,691,
scooby_state_638ec0|19|-11 456,2,0,0,3,1,218,2,2,2,1,0,0,0,4,691,
scooby_state_638ebd|5|-13 588,0,16,7,9,5,6,6,2,10,9,2,4,10,17,691,
scooby_state_638ebd|26|2 644,1,0,1,0,0,0,1,0,0,1,38,0,1,4,691,
scooby_state_638ebd|56|13 659,1,0,1,2,0,1,1,1,0,2,0,17,4,2,691,
scooby_state_638ed1|5|0 650,4,10,1,4,0,2,3,1,2,0,6,2,1,5,691,
scooby_state_638ebd|8|2 554,0,0,0,0,0,0,0,1,0,0,133,0,0,3,691,
scooby_state_638ec0|15|-3 290,280,0,9,8,47,6,8,7,11,8,0,2,4,11,691,
scooby_state_638ec0|30|21 685,0,0,0,0,0,2,0,0,0,0,0,0,4,0,691,
scooby_state_638ec0|35|-1 683,0,1,0,0,1,1,1,0,0,0,2,1,1,0,691,
scooby_state_638ec0|63|2 665,7,0,1,0,3,0,0,0,0,0,0,14,0,1,691,
scooby_state_638ebd|3|2 668,0,0,0,0,0,1,0,0,1,0,20,1,0,0,691,
scooby_state_638ec0|27|2 687,1,0,0,0,0,0,0,0,0,0,0,3,0,0,691,
scooby_state_638ebd|13|-2 576,84,2,5,1,1,1,2,1,2,1,4,2,1,8,691,
scooby_state_638ebd|18|-35 535,9,8,0,10,29,9,11,10,10,9,22,6,10,13,691,
scooby_state_638ebd|38|8 656,2,0,5,1,9,2,1,1,2,2,1,2,1,6,691,
scooby_state_638ebd|62|2 560,0,0,0,0,0,0,0,1,0,0,129,0,0,1,691,
scooby_state_638ed1|35|2 221,21,11,11,8,8,9,11,11,7,7,307,15,25,19,691,
scooby_state_638ec0|61|2 689,1,0,0,0,0,0,0,0,0,0,0,1,0,0,691,
scooby_state_638ec0|49|2 690,0,0,0,0,0,0,0,1,0,0,0,0,0,0,691,
scooby_state_638ebd|50|-13 666,0,1,1,3,0,2,0,0,1,1,4,2,2,8,691,
scooby_state_638ebd|21|-2 686,1,0,0,0,0,0,1,2,1,0,0,0,0,0,691,
scooby_state_638ec0|39|-14 603,4,0,0,0,0,1,0,0,0,0,83,0,0,0,691,
scooby_state_638ebd|7|-14 398,0,0,33,10,1,17,17,15,17,14,23,18,104,24,691,
scooby_state_638ec0|5|-34 305,4,0,130,1,12,36,1,1,2,3,141,2,49,4,691,
scooby_state_638ec0|48|2 691,0,0,0,0,0,0,0,0,0,0,0,0,0,0,691,
scooby_state_638ec0|27|-2 690,0,0,1,0,0,0,0,0,0,0,0,0,0,0,691,
scooby_state_638ec0|28|2 690,0,1,0,0,0,0,0,0,0,0,0,0,0,0,691,
scooby_state_638ebd|29|2 688,0,0,0,0,1,1,0,0,0,0,1,0,0,0,691,
scooby_state_638ec0|30|-1 690,0,0,0,0,0,0,0,1,0,0,0,0,0,0,691,
scooby_state_638ebd|55|3 27,0,0,6,1,8,1,0,0,1,1,642,1,0,3,691,
scooby_state_638ebd|56|-1 536,1,0,1,6,3,0,2,0,1,1,138,0,1,1,691,
scooby_state_638ebd|36|13 660,1,0,1,1,0,1,1,1,0,2,0,16,5,2,691,
scooby_state_638ec0|33|8 689,0,0,0,0,0,1,0,0,0,0,1,0,0,0,691,
scooby_state_638ebd|51|2 577,0,0,0,0,0,0,0,1,0,0,112,1,0,0,691,
scooby_state_638ed1|34|3 318,12,11,9,9,7,14,11,14,12,10,220,11,2,31,691,
scooby_state_638ec0|19|3 371,14,65,0,13,33,21,19,18,21,19,47,13,1,36,691,
scooby_state_638ec0|63|54 425,0,26,7,8,13,6,7,7,4,7,16,126,11,28,691,
scooby_state_638ec0|44|-2 605,55,7,1,1,1,2,0,3,1,2,0,3,6,4,691,
scooby_state_638ebd|36|1 578,1,0,1,0,1,0,1,2,0,0,106,1,0,0,691,
scooby_state_638ec0|22|-15 689,0,0,0,0,0,0,0,0,0,0,1,0,1,0,691,
scooby_state_638ec0|55|-4 659,0,0,0,0,0,0,0,0,0,0,32,0,0,0,691,
scooby_state_638ebd|23|2 520,1,2,1,1,0,6,0,1,1,4,148,2,2,2,691,
scooby_state_638ebd|39|-3 579,41,0,56,2,0,2,1,1,1,0,2,1,2,3,691,
scooby_state_638ebd|18|3 7,0,0,6,1,8,0,2,0,1,1,660,1,0,4,691,
scooby_state_638ec0|62|13 447,16,17,28,8,27,4,7,8,8,6,9,27,61,18,691,
scooby_state_638ebd|4|2 615,0,0,0,0,0,0,0,1,1,0,72,1,0,1,691,
scooby_state_638ec0|20|2 689,0,1,0,0,0,0,0,0,0,0,0,1,0,0,691,
scooby_state_638ec0|2|2 690,0,0,0,0,0,0,0,0,0,0,0,0,0,1,691,
scooby_state_638ebd|50|2 689,0,0,0,0,0,0,0,0,0,0,1,0,0,1,691,
scooby_state_638ec0|12|-16 690,0,0,0,0,0,0,0,0,1,0,0,0,0,0,691,
scooby_state_638eb0|60|2 351,5,5,12,3,0,4,2,3,2,3,284,3,5,9,691,
scooby_state_638ebd|18|10 655,0,0,28,0,0,0,0,0,0,0,8,0,0,0,691,
scooby_state_638ebd|29|1 682,0,0,0,0,1,1,0,0,0,0,7,0,0,0,691,
scooby_state_638ec0|19|-2 376,131,134,2,4,5,3,2,1,2,2,4,3,21,1,691,
scooby_state_638ebd|6|-7 2,0,1,1,0,0,0,1,0,0,0,686,0,0,0,691,
scooby_state_638ebd|46|-2 582,76,1,3,2,3,2,2,0,3,1,5,2,1,8,691,
scooby_state_638ebd|24|-4 402,13,5,23,11,0,83,15,15,17,10,52,10,17,18,691,
scooby_state_638ec0|43|-1 659,2,4,1,2,1,2,2,1,3,1,3,2,3,5,691,
scooby_state_638ebd|12|2 505,2,3,3,3,2,1,2,1,3,2,157,2,3,2,691,
scooby_state_638ebd|35|-28 691,0,0,0,0,0,0,0,0,0,0,0,0,0,0,691,
scooby_state_638ebd|9|2 689,0,0,0,0,0,0,0,0,1,0,0,1,0,0,691,
scooby_state_638ebd|11|2 615,0,1,2,2,0,1,1,0,1,3,59,2,2,2,691,
scooby_state_638ec0|37|-2 690,0,0,1,0,0,0,0,0,0,0,0,0,0,0,691,
scooby_state_638ebd|27|1 686,0,0,1,1,0,0,0,0,0,0,2,1,0,0,691,
scooby_state_638ebd|4|-2 689,1,0,0,0,0,0,0,0,0,1,0,0,0,0,691,
scooby_state_638ebd|19|2 503,1,3,3,3,2,1,2,1,3,2,160,2,3,2,691,
scooby_state_638ed1|7|-1 525,11,13,14,21,0,5,12,14,12,14,1,13,9,27,691,
scooby_state_638ec0|55|-1 688,0,0,0,1,0,1,0,0,0,0,0,0,1,0,691,
scooby_state_638ebd|3|-3 540,60,0,56,4,0,2,0,2,2,0,14,2,2,7,691,
scooby_state_638ec0|53|-2 599,77,2,1,1,1,1,2,0,1,0,1,0,3,2,691,
scooby_state_638ec0|38|-2 583,89,4,2,0,1,1,2,0,2,0,2,0,2,3,691,
scooby_state_638ec0|32|-1 665,2,2,4,2,1,0,0,4,1,1,5,0,1,3,691,
scooby_state_638ec0|63|59 683,0,0,1,7,0,0,0,0,0,0,0,0,0,0,691,
scooby_state_638ec0|14|-1 660,2,2,1,4,2,2,1,1,1,3,3,1,4,4,691,
scooby_state_638ebd|48|1 578,1,0,1,0,1,0,1,1,1,0,106,0,0,0,690,
scooby_state_638ec0|56|51 686,0,0,1,0,0,0,0,0,0,1,1,0,0,0,689,
scooby_state_638ec0|4|-1 687,0,0,0,0,0,0,0,1,1,0,0,0,0,0,689,
scooby_state_638ebd|10|6 78,0,1,0,1,1,0,0,0,0,0,607,0,1,0,689,
scooby_state_638ebd|60|13 658,2,0,1,2,1,1,2,2,2,1,0,12,3,2,689,
scooby_state_638ebd|41|8 688,0,0,0,0,1,0,0,0,0,0,0,0,0,0,689,
scooby_state_638ebd|46|13 688,0,0,0,0,0,0,0,0,0,0,0,0,1,0,689,
scooby_state_638ec0|13|2 686,0,0,0,1,1,0,0,0,1,0,0,0,0,0,689,
scooby_state_638ec0|32|11 689,0,0,0,0,0,0,0,0,0,0,0,0,0,0,689,
scooby_state_638ebd|46|14 685,0,0,0,1,0,0,1,0,0,0,0,0,2,0,689,
scooby_state_638ec0|60|48 601,0,0,0,0,0,0,0,0,0,2,85,0,1,0,689,
scooby_state_638ebd|31|13 686,0,0,0,1,0,0,1,0,0,0,0,0,0,1,689,
scooby_state_638ebd|61|14 686,0,0,0,0,0,0,1,0,0,0,0,1,0,0,688,
scooby_state_638ebd|57|11 664,1,8,0,0,0,0,0,0,0,0,6,9,0,0,688,
scooby_state_638ec0|34|-7 687,0,0,1,0,0,0,0,0,0,0,0,0,0,0,688,
scooby_state_638ebd|40|7 685,0,0,0,0,1,0,0,0,0,1,0,0,1,0,688,
[...]
scooby_state_7b1c9b|48|27 0,0,0,0,0,0,0,0,0,0,0,0,0,0,1,1,
scooby_state_64d13a|38|-14 0,0,0,0,0,0,0,0,0,0,0,0,1,0,0,1,
scooby_state_7b5749|27|-32 1,0,0,0,0,0,0,0,0,0,0,0,0,0,0,1,
scooby_state_652640|25|0 0,0,0,0,0,0,0,0,1,0,0,0,0,0,0,1,
scooby_state_5a1006|0|-21 1,0,0,0,0,0,0,0,0,0,0,0,0,0,0,1,
scooby_state_415c38|30|5 0,0,0,0,1,0,0,0,0,0,0,0,0,0,0,1,
scooby_state_649a4e|51|2 1,0,0,0,0,0,0,0,0,0,0,0,0,0,0,1,
scooby_state_7b3178|13|8 1,0,0,0,0,0,0,0,0,0,0,0,0,0,0,1,
scooby_state_7b5749|21|-3 1,0,0,0,0,0,0,0,0,0,0,0,0,0,0,1,
scooby_state_64d13a|60|1 1,0,0,0,0,0,0,0,0,0,0,0,0,0,0,1,
scooby_state_64a744|46|-1 1,0,0,0,0,0,0,0,0,0,0,0,0,0,0,1,
scooby_state_64d0cc|14|-2 0,0,0,0,0,1,0,0,0,0,0,0,0,0,0,1,
scooby_state_678c35|13|2 1,0,0,0,0,0,0,0,0,0,0,0,0,0,0,1,
scooby_state_5e9484|57|0 0,0,0,1,0,0,0,0,0,0,0,0,0,0,0,1,
scooby_state_64e196|8|-2 0,0,0,0,1,0,0,0,0,0,0,0,0,0,0,1,
scooby_state_406e2d|14|0 0,0,0,1,0,0,0,0,0,0,0,0,0,0,0,1,
scooby_state_64a740|10|1 0,0,0,0,0,0,0,0,0,0,0,0,0,1,0,1,
scooby_state_678c35|47|-3 0,0,0,0,0,1,0,0,0,0,0,0,0,0,0,1,
scooby_state_550528|20|1 1,0,0,0,0,0,0,0,0,0,0,0,0,0,0,1,
scooby_state_7b3054|57|2 1,0,0,0,0,0,0,0,0,0,0,0,0,0,0,1,
scooby_state_7b5749|27|-22 0,0,0,1,0,0,0,0,0,0,0,0,0,0,0,1,
scooby_state_678c35|58|8 0,1,0,0,0,0,0,0,0,0,0,0,0,0,0,1,
scooby_state_64e196|37|-7 1,0,0,0,0,0,0,0,0,0,0,0,0,0,0,1,
scooby_state_406cef|62|1 1,0,0,0,0,0,0,0,0,0,0,0,0,0,0,1,
scooby_state_7b31c0|9|0 1,0,0,0,0,0,0,0,0,0,0,0,0,0,0,1,
scooby_state_64d13a|56|11 0,0,0,0,0,0,0,0,0,0,0,1,0,0,0,1,
scooby_state_406bb9|13|0 1,0,0,0,0,0,0,0,0,0,0,0,0,0,0,1,
scooby_state_7b31c0|24|1 0,0,1,0,0,0,0,0,0,0,0,0,0,0,0,1,
scooby_state_7b1cd5|62|32 0,0,1,0,0,0,0,0,0,0,0,0,0,0,0,1,
scooby_state_678c35|54|-6 0,0,0,0,0,1,0,0,0,0,0,0,0,0,0,1,
scooby_state_406bc3|1|-31 0,0,1,0,0,0,0,0,0,0,0,0,0,0,0,1,
scooby_state_5dc97f|10|-10 0,0,0,0,0,0,0,0,0,0,0,0,0,1,0,1,
scooby_state_649e7e|43|8 1,0,0,0,0,0,0,0,0,0,0,0,0,0,0,1,
scooby_state_63869e|29|3 0,0,0,0,0,0,0,0,0,0,0,0,1,0,0,1,
scooby_state_64d13a|17|1 1,0,0,0,0,0,0,0,0,0,0,0,0,0,0,1,
scooby_state_638760|15|3 1,0,0,0,0,0,0,0,0,0,0,0,0,0,0,1,
scooby_state_64d13a|57|11 0,0,1,0,0,0,0,0,0,0,0,0,0,0,0,1,
scooby_state_649e7e|63|19 1,0,0,0,0,0,0,0,0,0,0,0,0,0,0,1,
scooby_state_638ebd|9|-5 1,0,0,0,0,0,0,0,0,0,0,0,0,0,0,1,
scooby_state_64e196|49|-8 0,0,0,0,0,0,1,0,0,0,0,0,0,0,0,1,
scooby_state_638c26|35|-3 0,0,0,0,0,0,0,0,0,0,0,1,0,0,0,1,
scooby_state_7b1c0d|49|3 0,0,0,0,0,0,0,0,0,1,0,0,0,0,0,1,
scooby_state_5ea779|40|-1 0,0,0,0,0,0,0,0,0,0,0,0,1,0,0,1,
scooby_state_64cf06|44|2 1,0,0,0,0,0,0,0,0,0,0,0,0,0,0,1,
scooby_state_64d13a|39|-7 1,0,0,0,0,0,0,0,0,0,0,0,0,0,0,1,
scooby_state_64e196|6|-5 1,0,0,0,0,0,0,0,0,0,0,0,0,0,0,1,
scooby_state_678c35|39|7 1,0,0,0,0,0,0,0,0,0,0,0,0,0,0,1,
scooby_state_678c35|28|8 1,0,0,0,0,0,0,0,0,0,0,0,0,0,0,1,
scooby_state_7b5749|5|-3 1,0,0,0,0,0,0,0,0,0,0,0,0,0,0,1,
scooby_state_7b3178|8|-4 1,0,0,0,0,0,0,0,0,0,0,0,0,0,0,1,
scooby_state_7b5749|4|-22 0,0,0,1,0,0,0,0,0,0,0,0,0,0,0,1,
scooby_state_7b13f5|17|17 1,0,0,0,0,0,0,0,0,0,0,0,0,0,0,1,
scooby_state_6443d0|15|-11 1,0,0,0,0,0,0,0,0,0,0,0,0,0,0,1,
scooby_state_638ec0|36|4 1,0,0,0,0,0,0,0,0,0,0,0,0,0,0,1,
scooby_state_45c790|30|0 0,0,0,1,0,0,0,0,0,0,0,0,0,0,0,1,
scooby_state_649e7e|41|-5 1,0,0,0,0,0,0,0,0,0,0,0,0,0,0,1,
scooby_state_7b5749|42|-7 1,0,0,0,0,0,0,0,0,0,0,0,0,0,0,1,
scooby_state_5dc986|40|2 1,0,0,0,0,0,0,0,0,0,0,0,0,0,0,1,
scooby_state_64cc6c|25|-9 1,0,0,0,0,0,0,0,0,0,0,0,0,0,0,1,
scooby_state_7b5749|18|-20 1,0,0,0,0,0,0,0,0,0,0,0,0,0,0,1,
scooby_state_64a744|39|-3 1,0,0,0,0,0,0,0,0,0,0,0,0,0,0,1,
scooby_state_64d0cc|38|-11 1,0,0,0,0,0,0,0,0,0,0,0,0,0,0,1,
scooby_state_7b1cef|50|0 0,0,0,0,0,1,0,0,0,0,0,0,0,0,0,1,
scooby_state_4ad74a|42|-13 0,0,0,0,0,0,0,0,0,0,0,0,1,0,0,1,
scooby_state_4ad8c0|35|5 1,0,0,0,0,0,0,0,0,0,0,0,0,0,0,1,
scooby_state_7b3590|13|-15 1,0,0,0,0,0,0,0,0,0,0,0,0,0,0,1,
scooby_state_638760|46|-7 0,0,0,0,0,0,0,0,0,0,0,0,1,0,0,1,
scooby_state_638777|20|4 0,0,0,0,0,1,0,0,0,0,0,0,0,0,0,1,
scooby_state_638777|1|-3 0,0,0,0,0,0,0,0,0,0,0,1,0,0,0,1,
scooby_state_638760|15|-6 1,0,0,0,0,0,0,0,0,0,0,0,0,0,0,1,
scooby_state_406bb0|2|-34 1,0,0,0,0,0,0,0,0,0,0,0,0,0,0,1,
scooby_state_64e196|34|3 0,1,0,0,0,0,0,0,0,0,0,0,0,0,0,1,
scooby_state_639036|9|-3 0,0,0,0,0,0,0,0,0,0,0,1,0,0,0,1,
scooby_state_7b5749|2|-28 1,0,0,0,0,0,0,0,0,0,0,0,0,0,0,1,
scooby_state_678c15|22|6 1,0,0,0,0,0,0,0,0,0,0,0,0,0,0,1,
scooby_state_64e196|28|-1 0,0,1,0,0,0,0,0,0,0,0,0,0,0,0,1,
scooby_state_638760|41|-4 0,0,0,0,0,0,0,0,0,0,0,0,1,0,0,1,
scooby_state_64d13a|44|8 0,0,0,0,0,0,0,0,0,0,0,0,1,0,0,1,
scooby_state_406bf5|19|3 0,1,0,0,0,0,0,0,0,0,0,0,0,0,0,1,
scooby_state_7b3054|33|4 1,0,0,0,0,0,0,0,0,0,0,0,0,0,0,1,
scooby_state_64d13a|31|-6 0,0,0,0,0,0,1,0,0,0,0,0,0,0,0,1,
scooby_state_64dfb4|48|-8 1,0,0,0,0,0,0,0,0,0,0,0,0,0,0,1,
scooby_state_63869e|56|9 1,0,0,0,0,0,0,0,0,0,0,0,0,0,0,1,
scooby_state_64a740|58|2 0,0,0,0,0,0,0,0,0,0,0,0,1,0,0,1,
scooby_state_5d7884|50|0 1,0,0,0,0,0,0,0,0,0,0,0,0,0,0,1,
scooby_state_638c26|41|-10 1,0,0,0,0,0,0,0,0,0,0,0,0,0,0,1,
scooby_state_649e7e|32|0 0,1,0,0,0,0,0,0,0,0,0,0,0,0,0,1,
scooby_state_64e196|57|1 0,0,0,0,0,0,1,0,0,0,0,0,0,0,0,1,
scooby_state_7b3178|8|-3 1,0,0,0,0,0,0,0,0,0,0,0,0,0,0,1,
scooby_state_4890a1|10|0 0,0,0,1,0,0,0,0,0,0,0,0,0,0,0,1,
scooby_state_638a34|17|1 1,0,0,0,0,0,0,0,0,0,0,0,0,0,0,1,
scooby_state_64e196|54|4 1,0,0,0,0,0,0,0,0,0,0,0,0,0,0,1,
scooby_state_7b31c0|34|32 1,0,0,0,0,0,0,0,0,0,0,0,0,0,0,1,
scooby_state_64e196|20|-12 0,0,1,0,0,0,0,0,0,0,0,0,0,0,0,1,
scooby_state_5dc813|35|-3 1,0,0,0,0,0,0,0,0,0,0,0,0,0,0,1,
scooby_state_60c901|45|-14 1,0,0,0,0,0,0,0,0,0,0,0,0,0,0,1,
scooby_state_550b2a|44|28 0,0,0,0,0,0,0,0,0,0,0,1,0,0,0,1,
scooby_state_678c35|38|-4 1,0,0,0,0,0,0,0,0,0,0,0,0,0,0,1,
scooby_state_7b1472|17|-3 1,0,0,0,0,0,0,0,0,0,0,0,0,0,0,1,
scooby_state_64d0c9|7|-2 1,0,0,0,0,0,0,0,0,0,0,0,0,0,0,1,
scooby_state_7b1caf|52|0 0,0,0,0,0,0,0,0,0,0,0,0,0,0,1,1,
scooby_state_638c26|47|-2 0,0,1,0,0,0,0,0,0,0,0,0,0,0,0,1,
scooby_state_7b5749|27|-26 0,0,0,0,0,0,0,0,0,0,0,1,0,0,0,1,
scooby_state_4983eb|48|0 0,0,0,0,0,0,0,0,0,0,0,0,0,1,0,1,
scooby_state_61a490|18|0 1,0,0,0,0,0,0,0,0,0,0,0,0,0,0,1,
scooby_state_638ed1|23|0 1,0,0,0,0,0,0,0,0,0,0,0,0,0,0,1,
scooby_state_4a76a1|24|-4 0,0,0,0,1,0,0,0,0,0,0,0,0,0,0,1,
scooby_state_7b5749|47|-3 0,0,0,0,1,0,0,0,0,0,0,0,0,0,0,1,
scooby_state_638c26|44|-8 0,0,1,0,0,0,0,0,0,0,0,0,0,0,0,1,
scooby_state_64dfb4|33|-3 1,0,0,0,0,0,0,0,0,0,0,0,0,0,0,1,
scooby_state_67e963|37|1 0,0,0,0,0,0,0,0,0,0,0,1,0,0,0,1,
scooby_state_64cc6c|7|-5 1,0,0,0,0,0,0,0,0,0,0,0,0,0,0,1,
scooby_state_7b5749|28|-34 0,0,0,0,0,0,0,0,0,0,0,0,0,0,1,1,
scooby_state_5e9f01|60|1 1,0,0,0,0,0,0,0,0,0,0,0,0,0,0,1,
scooby_state_638f1d|52|4 1,0,0,0,0,0,0,0,0,0,0,0,0,0,0,1,
scooby_state_64d13a|60|6 0,0,0,0,0,0,0,0,0,0,0,1,0,0,0,1,
scooby_state_7b5749|12|-5 1,0,0,0,0,0,0,0,0,0,0,0,0,0,0,1,
scooby_state_638f87|7|0 1,0,0,0,0,0,0,0,0,0,0,0,0,0,0,1,
scooby_state_7b304a|27|0 0,0,0,0,0,0,0,0,1,0,0,0,0,0,0,1,
scooby_state_7b5749|34|-12 1,0,0,0,0,0,0,0,0,0,0,0,0,0,0,1,
scooby_state_406bf5|53|19 0,1,0,0,0,0,0,0,0,0,0,0,0,0,0,1,
scooby_state_678c35|18|3 1,0,0,0,0,0,0,0,0,0,0,0,0,0,0,1,
scooby_state_7b1c0d|44|4 0,0,0,0,0,0,0,0,0,0,0,0,0,1,0,1,
scooby_state_64e196|35|-6 0,0,0,1,0,0,0,0,0,0,0,0,0,0,0,1,
scooby_state_64e196|58|15 0,0,0,0,0,1,0,0,0,0,0,0,0,0,0,1,
scooby_state_64e196|57|19 0,0,0,0,0,0,0,0,0,0,0,0,0,1,0,1,
scooby_state_406bb9|0|-35 1,0,0,0,0,0,0,0,0,0,0,0,0,0,0,1,
scooby_state_638760|1|-9 0,0,0,0,0,0,0,0,0,0,0,0,0,1,0,1,
scooby_state_678c35|27|1 0,0,0,0,0,0,0,0,0,0,0,1,0,0,0,1,
scooby_state_7b1cb9|40|-14 1,0,0,0,0,0,0,0,0,0,0,0,0,0,0,1,
scooby_state_64d13a|30|-14 0,0,0,0,0,0,0,0,0,0,1,0,0,0,0,1,
scooby_state_64e196|38|1 0,0,0,0,0,0,1,0,0,0,0,0,0,0,0,1,
scooby_state_7b3054|37|2 1,0,0,0,0,0,0,0,0,0,0,0,0,0,0,1,
scooby_state_64cc6c|25|-36 1,0,0,0,0,0,0,0,0,0,0,0,0,0,0,1,
scooby_state_48c586|22|1 0,0,0,0,0,0,0,0,0,0,0,1,0,0,0,1,
scooby_state_64cc6c|25|23 1,0,0,0,0,0,0,0,0,0,0,0,0,0,0,1,
scooby_state_64dfb4|21|-5 1,0,0,0,0,0,0,0,0,0,0,0,0,0,0,1,
scooby_state_7b5749|9|-21 0,0,0,0,0,0,0,0,0,0,0,0,0,1,0,1,
scooby_state_406cd0|61|0 1,0,0,0,0,0,0,0,0,0,0,0,0,0,0,1,
scooby_state_638eb0|37|2 0,0,0,0,0,0,0,0,0,0,0,1,0,0,0,1,
scooby_state_64e196|55|11 0,1,0,0,0,0,0,0,0,0,0,0,0,0,0,1,
scooby_state_638c26|41|4 1,0,0,0,0,0,0,0,0,0,0,0,0,0,0,1,
scooby_state_7b1c0d|40|20 1,0,0,0,0,0,0,0,0,0,0,0,0,0,0,1,
scooby_state_64cc6c|25|-31 1,0,0,0,0,0,0,0,0,0,0,0,0,0,0,1,
scooby_state_4a7694|32|1 0,0,0,0,0,0,0,0,0,0,0,0,1,0,0,1,
scooby_state_638c26|26|4 1,0,0,0,0,0,0,0,0,0,0,0,0,0,0,1,
scooby_state_638777|32|8 0,0,0,0,0,0,0,0,0,0,0,1,0,0,0,1,
scooby_state_64cea0|7|0 0,0,0,0,0,0,0,0,0,0,0,1,0,0,0,1,
scooby_state_4a83a0|14|1 1,0,0,0,0,0,0,0,0,0,0,0,0,0,0,1,
scooby_state_64e196|28|-5 1,0,0,0,0,0,0,0,0,0,0,0,0,0,0,1,
scooby_state_678c15|49|2 1,0,0,0,0,0,0,0,0,0,0,0,0,0,0,1,
scooby_state_678c35|17|-10 0,0,1,0,0,0,0,0,0,0,0,0,0,0,0,1,
scooby_state_7b5749|37|-21 0,0,0,0,0,1,0,0,0,0,0,0,0,0,0,1,
scooby_state_7b3620|24|0 0,0,0,0,0,0,0,0,0,0,0,1,0,0,0,1,
scooby_state_649ec6|43|-3 1,0,0,0,0,0,0,0,0,0,0,0,0,0,0,1,
scooby_state_4a8200|8|2 1,0,0,0,0,0,0,0,0,0,0,0,0,0,0,1,
scooby_state_678c15|4|-5 1,0,0,0,0,0,0,0,0,0,0,0,0,0,0,1,
scooby_state_406e2d|54|1 0,0,0,1,0,0,0,0,0,0,0,0,0,0,0,1,
scooby_state_649a4e|59|0 0,0,1,0,0,0,0,0,0,0,0,0,0,0,0,1,
scooby_state_64a774|39|1 0,0,0,1,0,0,0,0,0,0,0,0,0,0,0,1,
scooby_state_678c35|52|4 1,0,0,0,0,0,0,0,0,0,0,0,0,0,0,1,
scooby_state_63869e|21|4 0,0,0,0,0,0,0,0,0,0,0,1,0,0,0,1,
scooby_state_64e2d4|63|1 1,0,0,0,0,0,0,0,0,0,0,0,0,0,0,1,
scooby_state_638777|1|-1 0,0,0,0,0,0,0,0,0,0,0,1,0,0,0,1,
scooby_state_649ec6|54|11 1,0,0,0,0,0,0,0,0,0,0,0,0,0,0,1,
scooby_state_5dc97f|54|-6 1,0,0,0,0,0,0,0,0,0,0,0,0,0,0,1,
scooby_state_538de0|40|0 1,0,0,0,0,0,0,0,0,0,0,0,0,0,0,1,
scooby_state_64cc60|34|-26 1,0,0,0,0,0,0,0,0,0,0,0,0,0,0,1,
scooby_state_406bd7|51|2 1,0,0,0,0,0,0,0,0,0,0,0,0,0,0,1,
scooby_state_678c35|31|9 0,0,1,0,0,0,0,0,0,0,0,0,0,0,0,1,
scooby_state_638760|54|11 0,0,0,0,0,1,0,0,0,0,0,0,0,0,0,1,
scooby_state_639151|37|12 1,0,0,0,0,0,0,0,0,0,0,0,0,0,0,1,
scooby_state_4a7694|4|1 0,0,0,0,0,0,0,0,0,0,0,0,1,0,0,1,
scooby_state_49b08c|21|10 0,0,0,0,0,1,0,0,0,0,0,0,0,0,0,1,
scooby_state_64d0e0|43|-2 0,0,0,0,0,0,0,0,0,0,0,1,0,0,0,1,
scooby_state_64e196|24|-1 0,0,0,1,0,0,0,0,0,0,0,0,0,0,0,1,
scooby_state_64e196|39|-7 1,0,0,0,0,0,0,0,0,0,0,0,0,0,0,1,
scooby_state_7b5749|0|-17 0,0,0,0,0,0,0,0,0,0,0,0,0,0,1,1,
scooby_state_7b3033|19|-4 1,0,0,0,0,0,0,0,0,0,0,0,0,0,0,1,
scooby_state_6f7b2c|1|-29 1,0,0,0,0,0,0,0,0,0,0,0,0,0,0,1,
scooby_state_678c35|3|-6 0,0,0,1,0,0,0,0,0,0,0,0,0,0,0,1,
scooby_state_64ccbd|17|1 0,0,1,0,0,0,0,0,0,0,0,0,0,0,0,1,
scooby_state_638eb0|48|45 0,0,0,1,0,0,0,0,0,0,0,0,0,0,0,1,
scooby_state_638d64|32|0 0,0,0,0,0,1,0,0,0,0,0,0,0,0,0,1,
scooby_state_64e196|11|-11 1,0,0,0,0,0,0,0,0,0,0,0,0,0,0,1,
scooby_state_7b5749|5|-14 0,0,0,0,0,1,0,0,0,0,0,0,0,0,0,1,
scooby_state_64dfb4|12|-4 1,0,0,0,0,0,0,0,0,0,0,0,0,0,0,1,
scooby_state_638777|42|-11 0,0,0,0,0,0,0,0,0,0,0,1,0,0,0,1,
scooby_state_5dc813|9|0 0,0,0,0,0,1,0,0,0,0,0,0,0,0,0,1,
scooby_state_406bc3|13|0 0,0,1,0,0,0,0,0,0,0,0,0,0,0,0,1,
scooby_state_63869e|35|7 0,0,0,0,0,0,0,0,0,0,0,1,0,0,0,1,
scooby_state_638773|53|3 1,0,0,0,0,0,0,0,0,0,0,0,0,0,0,1,
scooby_state_64ccbd|44|1 0,0,1,0,0,0,0,0,0,0,0,0,0,0,0,1,
scooby_state_7b1c0d|31|5 0,0,0,0,0,0,0,0,0,0,0,1,0,0,0,1,
scooby_state_7b5749|9|-4 0,0,0,0,0,0,0,0,0,0,0,1,0,0,0,1,
scooby_state_64d13a|56|7 0,0,1,0,0,0,0,0,0,0,0,0,0,0,0,1,
scooby_state_5dc97f|31|-15 0,1,0,0,0,0,0,0,0,0,0,0,0,0,0,1,
scooby_state_5dc97f|31|3 0,1,0,0,0,0,0,0,0,0,0,0,0,0,0,1,
scooby_state_678c15|2|-58 1,0,0,0,0,0,0,0,0,0,0,0,0,0,0,1,
scooby_state_678c15|40|-10 1,0,0,0,0,0,0,0,0,0,0,0,0,0,0,1,
scooby_state_638c26|40|-5 0,0,0,0,0,0,1,0,0,0,0,0,0,0,0,1,
scooby_state_7b5749|26|-9 0,0,0,1,0,0,0,0,0,0,0,0,0,0,0,1,
scooby_state_63869e|39|-5 0,0,0,0,0,0,0,0,0,0,0,1,0,0,0,1,
scooby_state_7b1c0d|9|5 0,0,0,1,0,0,0,0,0,0,0,0,0,0,0,1,
scooby_state_7b14a3|7|-28 1,0,0,0,0,0,0,0,0,0,0,0,0,0,0,1,
scooby_state_7b375b|39|0 0,0,0,1,0,0,0,0,0,0,0,0,0,0,0,1,
scooby_state_638773|1|-1 0,0,0,0,0,0,0,1,0,0,0,0,0,0,0,1,
scooby_state_5a1350|13|2 1,0,0,0,0,0,0,0,0,0,0,0,0,0,0,1,
scooby_state_5dc813|48|-4 0,0,0,0,0,0,1,0,0,0,0,0,0,0,0,1,
scooby_state_5dc813|59|10 0,1,0,0,0,0,0,0,0,0,0,0,0,0,0,1,
scooby_state_499182|6|1 0,0,0,0,0,0,0,0,0,0,0,1,0,0,0,1,
scooby_state_678c35|21|-7 1,0,0,0,0,0,0,0,0,0,0,0,0,0,0,1,
scooby_state_406bb0|58|4 1,0,0,0,0,0,0,0,0,0,0,0,0,0,0,1,
scooby_state_64e196|17|12 1,0,0,0,0,0,0,0,0,0,0,0,0,0,0,1,
scooby_state_406bcd|0|-24 1,0,0,0,0,0,0,0,0,0,0,0,0,0,0,1,
scooby_state_64d13a|46|19 0,0,0,0,0,0,0,0,1,0,0,0,0,0,0,1,

scooby_action_0_deg_dist 0,10612,0,0,0,0,0,0,0,0,0,0,0,0,0,0,
scooby_action_-6_deg_dist 0,19035,13,0,0,0,0,0,0,0,0,0,0,0,0,0,
scooby_action_4_deg_dist 0,37079,906,0,1088,0,497,0,0,0,0,0,0,0,0,0,
scooby_action_1_deg_dist 0,2338863,134000,0,76334,0,181933,0,0,0,0,0,0,0,0,0,
scooby_action_30_deg_dist 0,4556,0,0,0,0,0,0,0,0,0,0,0,0,0,0,
scooby_action_5_deg_dist 0,27288,96,0,7,0,22,0,0,0,0,0,0,0,0,0,
scooby_action_3_deg_dist 0,19559,630,0,838,0,377,0,0,0,0,0,0,0,0,0,
scooby_action_32_deg_dist 0,4579,0,0,0,0,0,0,0,0,0,0,0,0,0,0,
scooby_action_10_deg_dist 0,9306,2,0,0,0,0,0,0,0,0,0,0,0,0,0,
scooby_action_23_deg_dist 0,4400,0,0,0,0,0,0,0,0,0,0,0,0,0,0,
scooby_action_-1_deg_dist 0,81230,799,0,79,0,5,0,0,0,0,0,0,0,0,0,
scooby_action_11_deg_dist 0,21141,60,0,2,0,0,0,0,0,0,0,0,0,0,0,
scooby_action_12_deg_dist 0,9943,4,0,1,0,0,0,0,0,0,0,0,0,0,0,
scooby_action_22_deg_dist 0,4809,0,0,0,0,0,0,0,0,0,0,0,0,0,0,
scooby_action_-3_deg_dist 0,19939,728,0,1081,0,29,0,0,0,0,0,0,0,0,0,

scooby_track_called 3011870
scooby_track_same_address 128420
scooby_track_evict 2883194

scooby_reward_demand_called 3011870
scooby_reward_demand_pt_not_found 1860724
scooby_reward_demand_pt_found 1151146
scooby_reward_demand_pt_found_total 1151146
scooby_reward_demand_has_reward 29943
scooby_reward_train_called 1706922
scooby_reward_assign_reward_called 2883336
scooby_reward_no_pref 10611
scooby_reward_incorrect 1696311
scooby_reward_correct_untimely 823112
scooby_reward_correct_timely 298091
scooby_reward_out_of_bounds 55211
scooby_reward_tracker_hit 0

scooby_reward_none_low_bw 10611
scooby_reward_none_high_bw 0
scooby_reward_incorrect_low_bw 1696311
scooby_reward_incorrect_high_bw 0
scooby_reward_correct_untimely_low_bw 823112
scooby_reward_correct_untimely_high_bw 0
scooby_reward_correct_timely_low_bw 298091
scooby_reward_correct_timely_high_bw 0
scooby_reward_out_of_bounds_low_bw 55211
scooby_reward_out_of_bounds_high_bw 0
scooby_reward_tracker_hit_low_bw 0
scooby_reward_tracker_hit_high_bw 0

scooby_reward_1 0,1560971,786259,275569,41570,0,
scooby_reward_3 0,9560,2606,1167,519,0,
scooby_reward_4 0,20354,8583,3481,690,0,
scooby_reward_5 0,14399,4832,2401,678,0,
scooby_reward_10 0,6317,1105,400,542,0,
scooby_reward_11 0,10519,4629,1260,1288,0,
scooby_reward_12 0,5491,713,687,1676,0,
scooby_reward_22 0,2882,24,53,1259,0,
scooby_reward_23 0,2699,66,11,1301,0,
scooby_reward_30 0,2376,107,14,1664,0,
scooby_reward_32 0,2213,95,22,1776,0,
scooby_reward_-1 0,35785,9813,8328,698,0,
scooby_reward_-3 0,11671,2174,3334,841,0,
scooby_reward_-6 0,11074,2106,1364,709,0,
scooby_reward_0 10611,0,0,0,0,0,

scooby_train_called 2883193
scooby_train_compute_reward 1706922

scooby_register_fill_called 1377215
scooby_register_fill_set 1193058
scooby_register_fill_set_total 1193058

scooby_register_prefetch_hit_called 1865318
scooby_register_prefetch_hit_set 1311633
scooby_register_prefetch_hit_set_total 1311633

scooby_pref_issue_scooby 3983357

learning_engine_featurewise.action.called 3011870
learning_engine_featurewise.action.explore 5475
learning_engine_featurewise.action.exploit 3006395
learning_engine_featurewise.action.fallback 744387
learning_engine_featurewise.action.dyn_fallback_saved_bw 0
learning_engine_featurewise.action.dyn_fallback_saved_bw_acc 12468
learning_engine_featurewise.action.index_1_explored 357
learning_engine_featurewise.action.index_1_exploited 2730773
learning_engine_featurewise.action.index_3_explored 386
learning_engine_featurewise.action.index_3_exploited 21018
learning_engine_featurewise.action.index_4_explored 383
learning_engine_featurewise.action.index_4_exploited 39187
learning_engine_featurewise.action.index_5_explored 336
learning_engine_featurewise.action.index_5_exploited 27077
learning_engine_featurewise.action.index_10_explored 404
learning_engine_featurewise.action.index_10_exploited 8904
learning_engine_featurewise.action.index_11_explored 378
learning_engine_featurewise.action.index_11_exploited 20825
learning_engine_featurewise.action.index_12_explored 374
learning_engine_featurewise.action.index_12_exploited 9574
learning_engine_featurewise.action.index_22_explored 364
learning_engine_featurewise.action.index_22_exploited 4445
learning_engine_featurewise.action.index_23_explored 370
learning_engine_featurewise.action.index_23_exploited 4030
learning_engine_featurewise.action.index_30_explored 356
learning_engine_featurewise.action.index_30_exploited 4200
learning_engine_featurewise.action.index_32_explored 327
learning_engine_featurewise.action.index_32_exploited 4252
learning_engine_featurewise.action.index_-1_explored 370
learning_engine_featurewise.action.index_-1_exploited 81743
learning_engine_featurewise.action.index_-3_explored 364
learning_engine_featurewise.action.index_-3_exploited 21413
learning_engine_featurewise.action.index_-6_explored 340
learning_engine_featurewise.action.index_-6_exploited 18708
learning_engine_featurewise.action.index_0_explored 366
learning_engine_featurewise.action.index_0_exploited 10246
learning_engine_featurewise.learn.called 2883193
learning_engine_featurewise.learn.su_skip_PC 0
learning_engine_featurewise.learn.su_skip_PC_Delta 0

learning_engine_featurewise.q_value_histogram.bucket_0 294
learning_engine_featurewise.q_value_histogram.bucket_1 931
learning_engine_featurewise.q_value_histogram.bucket_2 1178624
learning_engine_featurewise.q_value_histogram.bucket_3 554518
learning_engine_featurewise.q_value_histogram.bucket_4 692251
learning_engine_featurewise.q_value_histogram.bucket_5 269797
learning_engine_featurewise.q_value_histogram.bucket_6 309980
learning_engine_featurewise.q_value_histogram.bucket_7 0

learning_engine_featurewise.consensus.total 3006395
learning_engine_featurewise.consensus.feature_align_PC 2802843
learning_engine_featurewise.consensus.feature_align_PC_ratio 0.93
learning_engine_featurewise.consensus.feature_align_PC_Delta 2780151
learning_engine_featurewise.consensus.feature_align_PC_Delta_ratio 0.92
learning_engine_featurewise.consensus.feature_align_all 2577804
learning_engine_featurewise.consensus.feature_align_all_ratio 0.86

learning_engine_featurewise.feature_PC_min_weight 1000000.00000000
learning_engine_featurewise.feature_PC_max_weight 0.00000000
learning_engine_featurewise.feature_PC_Delta_min_weight 1000000.00000000
learning_engine_featurewise.feature_PC_Delta_max_weight 0.00000000
unique_pcs 1872
unique_pages 3478
unique_trigger_pcs 817
total_bitmaps_seen 0
unique_bitmaps_seen 0

scooby_bw_epochs 539468
scooby_bw_level_0 532442
scooby_bw_level_1 3293
scooby_bw_level_2 1362
scooby_bw_level_3 2371

scooby_ipc_epochs 0
scooby_ipc_level_0 0
scooby_ipc_level_1 0
scooby_ipc_level_2 0
scooby_ipc_level_3 0

scooby_cache_acc_epochs 128072
scooby_cache_acc_level_0 55685
scooby_cache_acc_level_1 20627
scooby_cache_acc_level_2 19163
scooby_cache_acc_level_3 14239
scooby_cache_acc_level_4 8751
scooby_cache_acc_level_5 4108
scooby_cache_acc_level_6 1481
scooby_cache_acc_level_7 1077
scooby_cache_acc_level_8 919
scooby_cache_acc_level_9 2022

Channel_0_RQ_row_buffer_hit 32285
Channel_0_RQ_row_buffer_miss 47703
Channel_0_WQ_row_buffer_hit 8478
Channel_0_WQ_row_buffer_miss 47725
Channel_0_WQ_full 0
Channel_0_dbus_congested 71971

avg_congested_cycle 10

DRAM_bw_pochs 539468
DRAM_bw_level_0 532442
DRAM_bw_level_1 3293
DRAM_bw_level_2 1362
DRAM_bw_level_3 2371
