*************************************************
   ChampSim Multicore Out-of-Order Simulator
   Last compiled: Apr  3 2025 20:54:34
*************************************************
parsing config file: /home/zir/Pythia/config/pythia.ini

trace_0 /home/zir/ChampSim/ML-DPC/ChampSimTraces/spec17/649.fotonik3d-s0.trace.xz
adding L2C_PREFETCHER: Scooby
Initialize SHIP state
warmup_instructions 10000000
simulation_instructions 50000000
champsim_seed 163
measure_ipc 0
measure_ipc_epoch 1000
measure_dram_bw 1
measure_dram_bw_epoch 256
measure_cache_acc 1
measure_cache_acc_epoch 1024
l1d_perfect 0
l2c_perfect 0
llc_perfect 0
l1d_semi_perfect 0
l2c_semi_perfect 0
llc_semi_perfect 0
semi_perfect_cache_page_buffer_size 64

num_cpus 1
cpu_freq 4000
dram_io_freq 2400
page_size 4096
block_size 64
max_read_per_cycle 8
max_fill_per_cycle 1
dram_channels 1
log2_dram_channels 0
dram_ranks 1
dram_banks 8
dram_rows 65536
dram_columns 128
dram_row_size 8
dram_size 4096
dram_pages 1048576

fetch_width 6
decode_width 6
exec_width 4
lq_width 2
sq_width 2
retire_width 4
scheduler_size 128
branch_mispredict_penalty 20
rob_size 256
lq_size 72
sq_size 56
num_instr_destinations_sparc 4
num_instr_destinations 2
num_instr_sources 4

itlb_set 16
itlb_way 8
itlb_rq_size 16
itlb_wq_size 16
itlb_pq_size 0
itlb_mshr_size 8
itlb_latency 1

dtlb_set 16
dtlb_way 4
dtlb_rq_size 16
dtlb_wq_size 16
dtlb_pq_size 0
dtlb_mshr_size 8
dtlb_latency 1

stlb_set 128
stlb_way 12
stlb_rq_size 32
stlb_wq_size 32
stlb_pq_size 0
stlb_mshr_size 16
stlb_latency 8

l1i_size 32
l1i_set 64
l1i_way 8
l1i_rq_size 64
l1i_wq_size 64
l1i_pq_size 8
l1i_mshr_size 8
l1i_latency 1

l1d_size 32
l1d_set 64
l1d_way 8
l1d_rq_size 64
l1d_wq_size 64
l1d_pq_size 8
l1d_mshr_size 16
l1d_latency 4

l2c_size 256
l2c_set 512
l2c_way 8
l2c_rq_size 32
l2c_wq_size 32
l2c_pq_size 32
l2c_mshr_size 32
l2c_latency 10

llc_size 2048
llc_set 2048
llc_way 16
llc_rq_size 32
llc_wq_size 32
llc_pq_size 32
llc_mshr_size 64
llc_latency 20

dram_channel_width 8
dram_wq_size 64
dram_rq_size 64
tRP 15
tRCD 15
tCAS 12.5
dram_dbus_turn_around_time 30
dram_write_high_wm 56
dram_write_low_wm 48
min_dram_writes_per_switch 16
dram_mtps 2400
dram_dbus_return_time 13

scooby_alpha 0.0065088
scooby_gamma 0.556301
scooby_epsilon 0.00182284
scooby_state_num_bits 10
scooby_max_states 1024
scooby_seed 200
scooby_policy EGreedy
scooby_learning_type SARSA
scooby_actions 1,3,4,5,10,11,12,22,23,30,32,-1,-3,-6,0,
scooby_max_actions 15
scooby_pt_size 256
scooby_st_size 64
scooby_max_pcs 5
scooby_max_offsets 5
scooby_max_deltas 5
scooby_reward_none -4
scooby_reward_incorrect -8
scooby_reward_correct_untimely 12
scooby_reward_correct_timely 20
scooby_brain_zero_init 0
scooby_enable_reward_all 0
scooby_enable_track_multiple 0
scooby_enable_reward_out_of_bounds 1
scooby_reward_out_of_bounds -12
scooby_state_type 1
scooby_state_hash_type 11
scooby_access_debug 0
scooby_print_access_debug 0
scooby_print_access_debug_pc deadbeef
scooby_print_access_debug_pc_count 0
scooby_print_trace 0
scooby_enable_state_action_stats 1
scooby_enable_reward_tracker_hit 0
scooby_reward_tracker_hit -2
scooby_enable_featurewise_engine 1
scooby_pref_degree 1
scooby_enable_dyn_degree 1
scooby_max_to_avg_q_thresholds 0.5,1,2,
scooby_dyn_degrees 1,2,4,4,
scooby_multi_deg_select_type 2
scooby_last_pref_offset_conf_thresholds 1,3,8,
scooby_dyn_degrees_type2 1,2,4,6,
scooby_action_tracker_size 2
scooby_high_bw_thresh 4
scooby_enable_hbw_reward 1
scooby_reward_hbw_correct_timely 20
scooby_reward_hbw_correct_untimely 12
scooby_reward_hbw_incorrect -14
scooby_reward_hbw_none -2
scooby_reward_hbw_out_of_bounds -12
scooby_reward_hbw_tracker_hit -2
scooby_last_pref_offset_conf_thresholds_hbw 1,3,8,
scooby_dyn_degrees_type2_hbw 1,2,4,6,

le_enable_trace 0
le_trace_interval 0
le_trace_file_name 
le_trace_state 0
le_enable_score_plot 0
le_plot_file_name 
le_plot_actions 
le_enable_action_trace 0
le_action_trace_interval 0
le_action_trace_name 
le_enable_action_plot 0

le_featurewise_active_features PC, PC_Delta
le_featurewise_num_tilings 3,3,
le_featurewise_num_tiles 128,128,
le_featurewise_hash_types 2,2,
le_featurewise_enable_tiling_offset 1,1,
le_featurewise_max_q_thresh 0.5
le_featurewise_enable_action_fallback 1
le_featurewise_feature_weights 1,1,
le_featurewise_enable_dynamic_weight 0
le_featurewise_weight_gradient 0.001
le_featurewise_disable_adjust_weight_all_features_align 1
le_featurewise_selective_update 0
le_featurewise_pooling_type 2
le_featurewise_enable_dyn_action_fallback 1
le_featurewise_bw_acc_check_level 1
le_featurewise_acc_thresh 2
le_featurewise_enable_trace 0
le_featurewise_trace_feature_type 0
le_featurewise_trace_feature 
le_featurewise_trace_interval 0
le_featurewise_trace_record_count 0
le_featurewise_trace_file_name 
le_featurewise_enable_score_plot 0
le_featurewise_plot_actions 
le_featurewise_plot_file_name 


Heartbeat CPU  0 instructions:    1000000 cycles:     838398 heartbeat IPC: 1.19275 cumulative IPC: 1.19275 (Simulation time: 0 hr 0 min 3 sec) 
Heartbeat CPU  0 instructions:    2000003 cycles:    1671582 heartbeat IPC: 1.20022 cumulative IPC: 1.19647 (Simulation time: 0 hr 0 min 5 sec) 
Heartbeat CPU  0 instructions:    3000002 cycles:    2502452 heartbeat IPC: 1.20356 cumulative IPC: 1.19883 (Simulation time: 0 hr 0 min 8 sec) 
Heartbeat CPU  0 instructions:    4000000 cycles:    3349668 heartbeat IPC: 1.18033 cumulative IPC: 1.19415 (Simulation time: 0 hr 0 min 10 sec) 
Heartbeat CPU  0 instructions:    5000001 cycles:    4172787 heartbeat IPC: 1.21489 cumulative IPC: 1.19824 (Simulation time: 0 hr 0 min 13 sec) 
Heartbeat CPU  0 instructions:    6000002 cycles:    5007097 heartbeat IPC: 1.19860 cumulative IPC: 1.19830 (Simulation time: 0 hr 0 min 15 sec) 
Heartbeat CPU  0 instructions:    7000001 cycles:    5850028 heartbeat IPC: 1.18634 cumulative IPC: 1.19658 (Simulation time: 0 hr 0 min 18 sec) 
Heartbeat CPU  0 instructions:    8000000 cycles:    6688574 heartbeat IPC: 1.19254 cumulative IPC: 1.19607 (Simulation time: 0 hr 0 min 21 sec) 
Heartbeat CPU  0 instructions:    9000001 cycles:    7520596 heartbeat IPC: 1.20189 cumulative IPC: 1.19671 (Simulation time: 0 hr 0 min 23 sec) 
Heartbeat CPU  0 instructions:   10000001 cycles:    8369633 heartbeat IPC: 1.17780 cumulative IPC: 1.19480 (Simulation time: 0 hr 0 min 26 sec) 

Warmup complete CPU  0 instructions:   10000001 cycles:    8369633 (Simulation time: 0 hr 0 min 26 sec) 

Heartbeat CPU  0 instructions:   11000000 cycles:   10209290 heartbeat IPC: 0.54358 cumulative IPC: 0.54358 (Simulation time: 0 hr 0 min 29 sec) 
Heartbeat CPU  0 instructions:   12000000 cycles:   12041729 heartbeat IPC: 0.54572 cumulative IPC: 0.54465 (Simulation time: 0 hr 0 min 32 sec) 
Heartbeat CPU  0 instructions:   13000000 cycles:   13880552 heartbeat IPC: 0.54383 cumulative IPC: 0.54437 (Simulation time: 0 hr 0 min 35 sec) 
Heartbeat CPU  0 instructions:   14000003 cycles:   15737544 heartbeat IPC: 0.53851 cumulative IPC: 0.54290 (Simulation time: 0 hr 0 min 38 sec) 
Heartbeat CPU  0 instructions:   15000001 cycles:   17532358 heartbeat IPC: 0.55716 cumulative IPC: 0.54569 (Simulation time: 0 hr 0 min 41 sec) 
Heartbeat CPU  0 instructions:   16000000 cycles:   19362251 heartbeat IPC: 0.54648 cumulative IPC: 0.54582 (Simulation time: 0 hr 0 min 44 sec) 
Heartbeat CPU  0 instructions:   17000001 cycles:   21204301 heartbeat IPC: 0.54287 cumulative IPC: 0.54540 (Simulation time: 0 hr 0 min 47 sec) 
Heartbeat CPU  0 instructions:   18000000 cycles:   23034082 heartbeat IPC: 0.54651 cumulative IPC: 0.54554 (Simulation time: 0 hr 0 min 50 sec) 
Heartbeat CPU  0 instructions:   19000001 cycles:   24855910 heartbeat IPC: 0.54890 cumulative IPC: 0.54591 (Simulation time: 0 hr 0 min 54 sec) 
Heartbeat CPU  0 instructions:   20000000 cycles:   26683846 heartbeat IPC: 0.54706 cumulative IPC: 0.54602 (Simulation time: 0 hr 0 min 57 sec) 
Heartbeat CPU  0 instructions:   21000002 cycles:   28538782 heartbeat IPC: 0.53910 cumulative IPC: 0.54539 (Simulation time: 0 hr 1 min 0 sec) 
Heartbeat CPU  0 instructions:   22000001 cycles:   30341412 heartbeat IPC: 0.55474 cumulative IPC: 0.54616 (Simulation time: 0 hr 1 min 3 sec) 
Heartbeat CPU  0 instructions:   23000002 cycles:   32145373 heartbeat IPC: 0.55434 cumulative IPC: 0.54678 (Simulation time: 0 hr 1 min 6 sec) 
Heartbeat CPU  0 instructions:   24000000 cycles:   33969941 heartbeat IPC: 0.54807 cumulative IPC: 0.54687 (Simulation time: 0 hr 1 min 9 sec) 
Heartbeat CPU  0 instructions:   25000000 cycles:   35807968 heartbeat IPC: 0.54406 cumulative IPC: 0.54668 (Simulation time: 0 hr 1 min 12 sec) 
Heartbeat CPU  0 instructions:   26000003 cycles:   37621217 heartbeat IPC: 0.55150 cumulative IPC: 0.54698 (Simulation time: 0 hr 1 min 15 sec) 
Heartbeat CPU  0 instructions:   27000000 cycles:   39458071 heartbeat IPC: 0.54441 cumulative IPC: 0.54683 (Simulation time: 0 hr 1 min 19 sec) 
Heartbeat CPU  0 instructions:   28000000 cycles:   41302571 heartbeat IPC: 0.54215 cumulative IPC: 0.54657 (Simulation time: 0 hr 1 min 22 sec) 
Heartbeat CPU  0 instructions:   29000001 cycles:   43121229 heartbeat IPC: 0.54986 cumulative IPC: 0.54674 (Simulation time: 0 hr 1 min 25 sec) 
Heartbeat CPU  0 instructions:   30000002 cycles:   44959264 heartbeat IPC: 0.54406 cumulative IPC: 0.54660 (Simulation time: 0 hr 1 min 28 sec) 
Heartbeat CPU  0 instructions:   31000001 cycles:   46786645 heartbeat IPC: 0.54723 cumulative IPC: 0.54663 (Simulation time: 0 hr 1 min 31 sec) 
Heartbeat CPU  0 instructions:   32000000 cycles:   48630879 heartbeat IPC: 0.54223 cumulative IPC: 0.54643 (Simulation time: 0 hr 1 min 34 sec) 
Heartbeat CPU  0 instructions:   33000002 cycles:   50462766 heartbeat IPC: 0.54589 cumulative IPC: 0.54641 (Simulation time: 0 hr 1 min 37 sec) 
Heartbeat CPU  0 instructions:   34000001 cycles:   52292725 heartbeat IPC: 0.54646 cumulative IPC: 0.54641 (Simulation time: 0 hr 1 min 40 sec) 
Heartbeat CPU  0 instructions:   35000003 cycles:   54114289 heartbeat IPC: 0.54898 cumulative IPC: 0.54651 (Simulation time: 0 hr 1 min 43 sec) 
Heartbeat CPU  0 instructions:   36000000 cycles:   55943105 heartbeat IPC: 0.54680 cumulative IPC: 0.54652 (Simulation time: 0 hr 1 min 47 sec) 
Heartbeat CPU  0 instructions:   37000002 cycles:   57790480 heartbeat IPC: 0.54131 cumulative IPC: 0.54633 (Simulation time: 0 hr 1 min 50 sec) 
Heartbeat CPU  0 instructions:   38000001 cycles:   59623985 heartbeat IPC: 0.54540 cumulative IPC: 0.54630 (Simulation time: 0 hr 1 min 53 sec) 
Heartbeat CPU  0 instructions:   39000001 cycles:   61460794 heartbeat IPC: 0.54442 cumulative IPC: 0.54623 (Simulation time: 0 hr 1 min 56 sec) 
Heartbeat CPU  0 instructions:   40000000 cycles:   63242889 heartbeat IPC: 0.56114 cumulative IPC: 0.54671 (Simulation time: 0 hr 1 min 59 sec) 
Heartbeat CPU  0 instructions:   41000000 cycles:   65081995 heartbeat IPC: 0.54374 cumulative IPC: 0.54662 (Simulation time: 0 hr 2 min 2 sec) 
Heartbeat CPU  0 instructions:   42000002 cycles:   66927494 heartbeat IPC: 0.54186 cumulative IPC: 0.54647 (Simulation time: 0 hr 2 min 5 sec) 
Heartbeat CPU  0 instructions:   43000002 cycles:   68765689 heartbeat IPC: 0.54401 cumulative IPC: 0.54639 (Simulation time: 0 hr 2 min 8 sec) 
Heartbeat CPU  0 instructions:   44000000 cycles:   70600659 heartbeat IPC: 0.54497 cumulative IPC: 0.54635 (Simulation time: 0 hr 2 min 11 sec) 
Heartbeat CPU  0 instructions:   45000000 cycles:   72441383 heartbeat IPC: 0.54326 cumulative IPC: 0.54626 (Simulation time: 0 hr 2 min 14 sec) 
Heartbeat CPU  0 instructions:   46000003 cycles:   74289152 heartbeat IPC: 0.54119 cumulative IPC: 0.54612 (Simulation time: 0 hr 2 min 18 sec) 
Heartbeat CPU  0 instructions:   47000002 cycles:   76128551 heartbeat IPC: 0.54366 cumulative IPC: 0.54605 (Simulation time: 0 hr 2 min 21 sec) 
Heartbeat CPU  0 instructions:   48000000 cycles:   77974560 heartbeat IPC: 0.54171 cumulative IPC: 0.54594 (Simulation time: 0 hr 2 min 24 sec) 
Heartbeat CPU  0 instructions:   49000002 cycles:   79827036 heartbeat IPC: 0.53982 cumulative IPC: 0.54578 (Simulation time: 0 hr 2 min 27 sec) 
Heartbeat CPU  0 instructions:   50000001 cycles:   81660502 heartbeat IPC: 0.54541 cumulative IPC: 0.54577 (Simulation time: 0 hr 2 min 30 sec) 
Heartbeat CPU  0 instructions:   51000001 cycles:   83501533 heartbeat IPC: 0.54317 cumulative IPC: 0.54571 (Simulation time: 0 hr 2 min 33 sec) 
Heartbeat CPU  0 instructions:   52000000 cycles:   85314792 heartbeat IPC: 0.55149 cumulative IPC: 0.54584 (Simulation time: 0 hr 2 min 36 sec) 
Heartbeat CPU  0 instructions:   53000003 cycles:   87149674 heartbeat IPC: 0.54500 cumulative IPC: 0.54582 (Simulation time: 0 hr 2 min 39 sec) 
Heartbeat CPU  0 instructions:   54000002 cycles:   88977033 heartbeat IPC: 0.54724 cumulative IPC: 0.54586 (Simulation time: 0 hr 2 min 42 sec) 
Heartbeat CPU  0 instructions:   55000000 cycles:   90812096 heartbeat IPC: 0.54494 cumulative IPC: 0.54584 (Simulation time: 0 hr 2 min 46 sec) 
Heartbeat CPU  0 instructions:   56000000 cycles:   92651218 heartbeat IPC: 0.54374 cumulative IPC: 0.54579 (Simulation time: 0 hr 2 min 49 sec) 
Heartbeat CPU  0 instructions:   57000000 cycles:   94487394 heartbeat IPC: 0.54461 cumulative IPC: 0.54576 (Simulation time: 0 hr 2 min 52 sec) 
Heartbeat CPU  0 instructions:   58000001 cycles:   96324152 heartbeat IPC: 0.54444 cumulative IPC: 0.54574 (Simulation time: 0 hr 2 min 55 sec) 
Heartbeat CPU  0 instructions:   59000002 cycles:   98151062 heartbeat IPC: 0.54737 cumulative IPC: 0.54577 (Simulation time: 0 hr 2 min 58 sec) 
Heartbeat CPU  0 instructions:   60000000 cycles:   99987225 heartbeat IPC: 0.54461 cumulative IPC: 0.54575 (Simulation time: 0 hr 3 min 1 sec) 
Finished CPU 0 instructions: 50000000 cycles: 91617625 cumulative IPC: 0.54575 (Simulation time: 0 hr 3 min 1 sec) 

ChampSim completed all CPUs

[ROI Statistics]
Core_0_instructions 50000000
Core_0_cycles 91617625
Core_0_IPC 0.54575

Core_0_branch_prediction_accuracy 99.99301
Core_0_branch_MPKI 0.00084
Core_0_average_ROB_occupancy_at_mispredict 253.50000

Core_0_L1D_total_access 26757622
Core_0_L1D_total_hit 25795602
Core_0_L1D_total_miss 962020
Core_0_L1D_loads 23551962
Core_0_L1D_load_hit 22589942
Core_0_L1D_load_miss 962020
Core_0_L1D_RFOs 3205660
Core_0_L1D_RFO_hit 3205660
Core_0_L1D_RFO_miss 0
Core_0_L1D_prefetches 0
Core_0_L1D_prefetch_hit 0
Core_0_L1D_prefetch_miss 0
Core_0_L1D_writebacks 0
Core_0_L1D_writeback_hit 0
Core_0_L1D_writeback_miss 0
Core_0_L1D_prefetch_requested 0
Core_0_L1D_prefetch_dropped 0
Core_0_L1D_prefetch_issued 0
Core_0_L1D_prefetch_filled 0
Core_0_L1D_prefetch_useful 0
Core_0_L1D_prefetch_useless 0
Core_0_L1D_prefetch_late 0
Core_0_L1D_average_miss_latency 104.96717

Core_0_L1D_rq_access 31894511
Core_0_L1D_rq_forward 0
Core_0_L1D_rq_merged 8217686
Core_0_L1D_rq_to_cache 23676825
Core_0_L1D_rq_full 0

Core_0_L1D_wq_access 3205660
Core_0_L1D_wq_forward 0
Core_0_L1D_wq_merged 0
Core_0_L1D_wq_to_cache 3205660
Core_0_L1D_wq_full 0

Core_0_L1D_pq_access 0
Core_0_L1D_pq_forward 0
Core_0_L1D_pq_merged 0
Core_0_L1D_pq_to_cache 0
Core_0_L1D_pq_full 0

Core_0_L1D_acc_epochs 81229
Core_0_L1D_acc_level_0 81229
Core_0_L1D_acc_level_1 0
Core_0_L1D_acc_level_2 0
Core_0_L1D_acc_level_3 0
Core_0_L1D_acc_level_4 0
Core_0_L1D_acc_level_5 0
Core_0_L1D_acc_level_6 0
Core_0_L1D_acc_level_7 0
Core_0_L1D_acc_level_8 0
Core_0_L1D_acc_level_9 0

Core_0_L1I_total_access 14452040
Core_0_L1I_total_hit 14452040
Core_0_L1I_total_miss 0
Core_0_L1I_loads 14452040
Core_0_L1I_load_hit 14452040
Core_0_L1I_load_miss 0
Core_0_L1I_RFOs 0
Core_0_L1I_RFO_hit 0
Core_0_L1I_RFO_miss 0
Core_0_L1I_prefetches 0
Core_0_L1I_prefetch_hit 0
Core_0_L1I_prefetch_miss 0
Core_0_L1I_writebacks 0
Core_0_L1I_writeback_hit 0
Core_0_L1I_writeback_miss 0
Core_0_L1I_prefetch_requested 0
Core_0_L1I_prefetch_dropped 0
Core_0_L1I_prefetch_issued 0
Core_0_L1I_prefetch_filled 0
Core_0_L1I_prefetch_useful 0
Core_0_L1I_prefetch_useless 0
Core_0_L1I_prefetch_late 0
Core_0_L1I_average_miss_latency -nan

Core_0_L1I_rq_access 50000007
Core_0_L1I_rq_forward 0
Core_0_L1I_rq_merged 35547967
Core_0_L1I_rq_to_cache 14452040
Core_0_L1I_rq_full 0

Core_0_L1I_wq_access 0
Core_0_L1I_wq_forward 0
Core_0_L1I_wq_merged 0
Core_0_L1I_wq_to_cache 0
Core_0_L1I_wq_full 0

Core_0_L1I_pq_access 0
Core_0_L1I_pq_forward 0
Core_0_L1I_pq_merged 0
Core_0_L1I_pq_to_cache 0
Core_0_L1I_pq_full 0

Core_0_L1I_acc_epochs 81229
Core_0_L1I_acc_level_0 81229
Core_0_L1I_acc_level_1 0
Core_0_L1I_acc_level_2 0
Core_0_L1I_acc_level_3 0
Core_0_L1I_acc_level_4 0
Core_0_L1I_acc_level_5 0
Core_0_L1I_acc_level_6 0
Core_0_L1I_acc_level_7 0
Core_0_L1I_acc_level_8 0
Core_0_L1I_acc_level_9 0

Core_0_L2C_total_access 3467747
Core_0_L2C_total_hit 2067585
Core_0_L2C_total_miss 1400162
Core_0_L2C_loads 962020
Core_0_L2C_load_hit 617262
Core_0_L2C_load_miss 344758
Core_0_L2C_RFOs 0
Core_0_L2C_RFO_hit 0
Core_0_L2C_RFO_miss 0
Core_0_L2C_prefetches 2019981
Core_0_L2C_prefetch_hit 964580
Core_0_L2C_prefetch_miss 1055401
Core_0_L2C_writebacks 485746
Core_0_L2C_writeback_hit 485743
Core_0_L2C_writeback_miss 3
Core_0_L2C_prefetch_requested 2448045
Core_0_L2C_prefetch_dropped 0
Core_0_L2C_prefetch_issued 2448045
Core_0_L2C_prefetch_filled 1268327
Core_0_L2C_prefetch_useful 742790
Core_0_L2C_prefetch_useless 524315
Core_0_L2C_prefetch_late 10026
Core_0_L2C_average_miss_latency 232.86758

Core_0_L2C_rq_access 962020
Core_0_L2C_rq_forward 0
Core_0_L2C_rq_merged 0
Core_0_L2C_rq_to_cache 962020
Core_0_L2C_rq_full 0

Core_0_L2C_wq_access 485746
Core_0_L2C_wq_forward 0
Core_0_L2C_wq_merged 0
Core_0_L2C_wq_to_cache 485746
Core_0_L2C_wq_full 0

Core_0_L2C_pq_access 2448045
Core_0_L2C_pq_forward 0
Core_0_L2C_pq_merged 2493
Core_0_L2C_pq_to_cache 2445552
Core_0_L2C_pq_full 0

Core_0_L2C_acc_epochs 81229
Core_0_L2C_acc_level_0 1
Core_0_L2C_acc_level_1 1
Core_0_L2C_acc_level_2 23
Core_0_L2C_acc_level_3 961
Core_0_L2C_acc_level_4 9439
Core_0_L2C_acc_level_5 31079
Core_0_L2C_acc_level_6 24164
Core_0_L2C_acc_level_7 9902
Core_0_L2C_acc_level_8 3548
Core_0_L2C_acc_level_9 2111

Core_0_LLC_total_access 1885949
Core_0_LLC_total_hit 161814
Core_0_LLC_total_miss 1724135
Core_0_LLC_loads 334769
Core_0_LLC_load_hit 37949
Core_0_LLC_load_miss 296820
Core_0_LLC_RFOs 0
Core_0_LLC_RFO_hit 0
Core_0_LLC_RFO_miss 0
Core_0_LLC_prefetches 1065390
Core_0_LLC_prefetch_hit 96288
Core_0_LLC_prefetch_miss 969102
Core_0_LLC_writebacks 485790
Core_0_LLC_writeback_hit 27577
Core_0_LLC_writeback_miss 458213
Core_0_LLC_prefetch_requested 0
Core_0_LLC_prefetch_dropped 0
Core_0_LLC_prefetch_issued 0
Core_0_LLC_prefetch_filled 1164634
Core_0_LLC_prefetch_useful 7268
Core_0_LLC_prefetch_useless 1145958
Core_0_LLC_prefetch_late 0
Core_0_LLC_average_miss_latency 159.63886

Core_0_LLC_rq_access 334769
Core_0_LLC_rq_forward 0
Core_0_LLC_rq_merged 0
Core_0_LLC_rq_to_cache 334769
Core_0_LLC_rq_full 0

Core_0_LLC_wq_access 485790
Core_0_LLC_wq_forward 0
Core_0_LLC_wq_merged 0
Core_0_LLC_wq_to_cache 485790
Core_0_LLC_wq_full 0

Core_0_LLC_pq_access 1278354
Core_0_LLC_pq_forward 0
Core_0_LLC_pq_merged 0
Core_0_LLC_pq_to_cache 1278354
Core_0_LLC_pq_full 0

Core_0_LLC_acc_epochs 97644
Core_0_LLC_acc_level_0 97374
Core_0_LLC_acc_level_1 248
Core_0_LLC_acc_level_2 17
Core_0_LLC_acc_level_3 0
Core_0_LLC_acc_level_4 0
Core_0_LLC_acc_level_5 5
Core_0_LLC_acc_level_6 0
Core_0_LLC_acc_level_7 0
Core_0_LLC_acc_level_8 0
Core_0_LLC_acc_level_9 0

Core_0_major_page_fault 0
Core_0_minor_page_fault 154361

scooby_st_lookup 1154487
scooby_st_hit 950829
scooby_st_evict 203594
scooby_st_insert 203658
scooby_st_streaming 0

scooby_predict_called 1154487
scooby_predict_out_of_bounds 49095
scooby_predict_action_1 1072427
scooby_predict_issue_action_1 1064001
scooby_predict_hit_action_1 8426
scooby_predict_out_of_bounds_action_1 16974
scooby_predict_action_3 190
scooby_predict_issue_action_3 179
scooby_predict_hit_action_3 11
scooby_predict_out_of_bounds_action_3 4
scooby_predict_action_4 152
scooby_predict_issue_action_4 152
scooby_predict_hit_action_4 0
scooby_predict_out_of_bounds_action_4 10
scooby_predict_action_5 146
scooby_predict_issue_action_5 146
scooby_predict_hit_action_5 0
scooby_predict_out_of_bounds_action_5 8
scooby_predict_action_10 141
scooby_predict_issue_action_10 141
scooby_predict_hit_action_10 0
scooby_predict_out_of_bounds_action_10 29
scooby_predict_action_11 136
scooby_predict_issue_action_11 136
scooby_predict_hit_action_11 0
scooby_predict_out_of_bounds_action_11 17
scooby_predict_action_12 129
scooby_predict_issue_action_12 129
scooby_predict_hit_action_12 0
scooby_predict_out_of_bounds_action_12 30
scooby_predict_action_22 110
scooby_predict_issue_action_22 110
scooby_predict_hit_action_22 0
scooby_predict_out_of_bounds_action_22 57
scooby_predict_action_23 102
scooby_predict_issue_action_23 102
scooby_predict_hit_action_23 0
scooby_predict_out_of_bounds_action_23 58
scooby_predict_action_30 96
scooby_predict_issue_action_30 96
scooby_predict_hit_action_30 0
scooby_predict_out_of_bounds_action_30 71
scooby_predict_action_32 31224
scooby_predict_issue_action_32 31224
scooby_predict_hit_action_32 0
scooby_predict_out_of_bounds_action_32 31820
scooby_predict_action_-1 140
scooby_predict_issue_action_-1 89
scooby_predict_hit_action_-1 51
scooby_predict_out_of_bounds_action_-1 1
scooby_predict_action_-3 132
scooby_predict_issue_action_-3 103
scooby_predict_hit_action_-3 29
scooby_predict_out_of_bounds_action_-3 8
scooby_predict_action_-6 120
scooby_predict_issue_action_-6 95
scooby_predict_hit_action_-6 25
scooby_predict_out_of_bounds_action_-6 8
scooby_predict_action_0 147
scooby_predict_issue_action_0 0
scooby_predict_hit_action_0 0
scooby_predict_out_of_bounds_action_0 0
scooby_predict_multi_deg_called 489060
scooby_predict_predicted 2448045
scooby_predict_multi_deg 1351342
scooby_predict_multi_deg_2 476668
scooby_predict_multi_deg_3 244724
scooby_predict_multi_deg_4 239993
scooby_predict_multi_deg_5 196976
scooby_predict_multi_deg_6 192981
scooby_predict_multi_deg_7 0
scooby_predict_multi_deg_8 0
scooby_predict_multi_deg_9 0
scooby_predict_multi_deg_10 0
scooby_predict_multi_deg_11 0
scooby_predict_multi_deg_12 0
scooby_predict_multi_deg_13 0
scooby_predict_multi_deg_14 0
scooby_predict_multi_deg_15 0
scooby_predict_multi_deg_16 0

scooby_selected_deg_1 607643
scooby_selected_deg_2 234951
scooby_selected_deg_3 0
scooby_selected_deg_4 41249
scooby_selected_deg_5 0
scooby_selected_deg_6 212860
scooby_selected_deg_7 0
scooby_selected_deg_8 0
scooby_selected_deg_9 0
scooby_selected_deg_10 0
scooby_selected_deg_11 0
scooby_selected_deg_12 0
scooby_selected_deg_13 0
scooby_selected_deg_14 0
scooby_selected_deg_15 0
scooby_selected_deg_16 0

scooby_state_455d75|0|0 1877,0,0,0,0,0,1,0,0,0,0,0,0,0,0,1878,
scooby_state_455c8d|0|0 1876,1,0,0,0,0,1,0,0,0,0,0,0,0,0,1878,
scooby_state_455e34|0|0 1780,0,0,0,2,1,0,0,0,0,1,0,1,0,0,1785,
scooby_state_455cc3|0|0 1782,0,0,0,0,1,0,0,1,0,0,0,0,0,0,1784,
scooby_state_455c73|0|0 1782,0,0,0,1,0,1,0,0,0,0,0,0,0,0,1784,
scooby_state_455d47|0|0 1503,0,0,0,0,0,0,0,0,0,0,0,0,0,0,1503,
scooby_state_455de3|0|0 1500,1,0,0,0,0,0,0,0,1,0,0,0,0,0,1502,
scooby_state_455dd1|35|1 1217,1,0,0,0,0,0,1,0,0,1,1,0,0,0,1221,
scooby_state_455d1a|28|1 1217,1,0,0,1,0,0,0,0,2,0,0,0,0,0,1221,
scooby_state_455c60|34|1 1220,0,0,1,0,0,0,0,0,0,0,0,0,0,0,1221,
scooby_state_455c60|24|1 1221,0,0,0,0,0,0,0,0,0,0,0,0,0,0,1221,
scooby_state_455d1a|12|1 1217,1,0,0,1,1,0,0,0,1,0,0,0,0,0,1221,
scooby_state_455dd1|41|1 1219,0,0,0,0,0,0,0,0,1,0,0,1,0,0,1221,
scooby_state_455dd1|33|1 1217,0,0,1,0,1,0,0,0,1,0,0,1,0,0,1221,
scooby_state_455d1a|46|1 1221,0,0,0,0,0,0,0,0,0,0,0,0,0,0,1221,
scooby_state_455dd1|27|1 1220,0,0,0,0,0,0,0,0,0,0,0,1,0,0,1221,
scooby_state_455dd1|11|1 1218,0,1,0,0,0,0,0,0,0,0,1,0,0,1,1221,
scooby_state_455dd1|37|1 1218,0,0,0,0,0,1,0,0,0,0,0,0,1,1,1221,
scooby_state_455d1a|13|1 1221,0,0,0,0,0,0,0,0,0,0,0,0,0,0,1221,
scooby_state_455dd1|46|1 1220,0,0,1,0,0,0,0,0,0,0,0,0,0,0,1221,
scooby_state_455dd1|30|1 1219,0,2,0,0,0,0,0,0,0,0,0,0,0,0,1221,
scooby_state_455c60|47|1 1218,0,0,1,0,0,0,0,0,0,0,0,0,1,1,1221,
scooby_state_455d1a|44|1 1218,0,0,0,1,0,0,0,0,1,0,0,1,0,0,1221,
scooby_state_455d1a|19|1 1220,0,0,0,0,1,0,0,0,0,0,0,0,0,0,1221,
scooby_state_455c60|28|1 1217,0,0,1,0,1,0,1,0,0,0,0,1,0,0,1221,
scooby_state_455c60|17|1 1220,0,0,0,0,0,0,0,0,0,0,1,0,0,0,1221,
scooby_state_455dd1|8|1 1217,2,0,1,1,0,0,0,0,0,0,0,0,0,0,1221,
scooby_state_455dd1|21|1 1218,1,0,1,0,0,0,0,0,0,0,0,0,0,1,1221,
scooby_state_455c60|43|1 1220,0,0,0,0,0,0,0,0,0,0,1,0,0,0,1221,
scooby_state_455d1a|33|1 1218,1,0,0,0,0,0,0,0,1,0,1,0,0,0,1221,
scooby_state_455dd1|10|1 1219,0,0,0,1,0,0,0,0,0,0,0,0,1,0,1221,
scooby_state_455d1a|43|1 1220,0,0,0,0,0,0,0,1,0,0,0,0,0,0,1221,
scooby_state_455c60|45|1 1218,0,0,0,0,1,0,0,0,1,1,0,0,0,0,1221,
scooby_state_455d1a|22|1 1221,0,0,0,0,0,0,0,0,0,0,0,0,0,0,1221,
scooby_state_455dd1|9|1 1220,0,0,0,0,0,0,0,0,0,0,0,1,0,0,1221,
scooby_state_455d1a|11|1 1220,0,0,0,0,0,0,0,0,1,0,0,0,0,0,1221,
scooby_state_455dd1|44|1 1219,0,0,0,1,0,0,0,0,1,0,0,0,0,0,1221,
scooby_state_455d1a|40|1 1220,0,0,0,0,0,1,0,0,0,0,0,0,0,0,1221,
scooby_state_455d1a|21|1 1219,0,1,0,0,1,0,0,0,0,0,0,0,0,0,1221,
scooby_state_455c60|11|1 1219,0,0,0,0,0,0,0,0,0,1,1,0,0,0,1221,
scooby_state_455c60|14|1 1221,0,0,0,0,0,0,0,0,0,0,0,0,0,0,1221,
scooby_state_455d1a|34|1 1219,0,0,0,0,0,0,1,0,0,0,1,0,0,0,1221,
scooby_state_455c60|12|1 1220,0,0,0,0,0,0,0,0,0,0,0,0,1,0,1221,
scooby_state_455c60|25|1 1219,0,0,0,1,0,0,1,0,0,0,0,0,0,0,1221,
scooby_state_455dd1|36|1 1218,1,0,0,0,0,0,0,1,0,0,0,0,0,1,1221,
scooby_state_455c60|39|1 1219,1,0,1,0,0,0,0,0,0,0,0,0,0,0,1221,
scooby_state_455c60|22|1 1221,0,0,0,0,0,0,0,0,0,0,0,0,0,0,1221,
scooby_state_455d1a|35|1 1216,1,0,0,1,0,1,0,1,0,0,1,0,0,0,1221,
scooby_state_455dd1|25|1 1219,0,0,0,0,0,0,1,0,0,0,1,0,0,0,1221,
scooby_state_455c60|31|1 1217,0,0,0,0,0,0,1,0,1,0,1,0,1,0,1221,
scooby_state_455c60|42|1 1220,0,0,0,0,0,0,0,0,0,0,0,0,1,0,1221,
scooby_state_455d1a|36|1 1218,0,0,0,0,0,0,1,1,0,1,0,0,0,0,1221,
scooby_state_455d1a|29|1 1220,0,0,0,0,0,0,0,0,0,0,1,0,0,0,1221,
scooby_state_455dd1|40|1 1219,0,0,0,0,0,0,0,0,0,1,0,0,1,0,1221,
scooby_state_455d1a|17|1 1218,0,0,0,1,0,0,0,0,0,0,0,1,0,1,1221,
scooby_state_455dd1|22|1 1220,0,0,0,0,0,0,0,0,0,1,0,0,0,0,1221,
scooby_state_455c60|21|1 1219,0,0,1,0,0,0,0,0,0,0,1,0,0,0,1221,
scooby_state_455c60|44|1 1219,0,0,0,1,0,0,0,0,0,0,0,0,1,0,1221,
scooby_state_455c60|32|1 1221,0,0,0,0,0,0,0,0,0,0,0,0,0,0,1221,
scooby_state_455d1a|18|1 1219,0,0,0,1,0,0,0,1,0,0,0,0,0,0,1221,
scooby_state_455c60|27|1 1220,0,0,1,0,0,0,0,0,0,0,0,0,0,0,1221,
scooby_state_455c60|33|1 1218,0,0,0,1,0,0,0,0,0,1,0,1,0,0,1221,
scooby_state_455d1a|9|1 1215,1,1,1,1,0,0,0,0,1,0,0,0,0,1,1221,
scooby_state_455d1a|24|1 1217,0,0,0,0,0,0,0,1,1,0,1,1,0,0,1221,
scooby_state_455c60|18|1 1221,0,0,0,0,0,0,0,0,0,0,0,0,0,0,1221,
scooby_state_455c60|30|1 1219,0,0,0,0,0,0,1,0,0,0,0,1,0,0,1221,
scooby_state_455d1a|38|1 1220,1,0,0,0,0,0,0,0,0,0,0,0,0,0,1221,
scooby_state_455d1a|31|1 1219,0,0,0,0,0,0,0,0,0,0,1,1,0,0,1221,
scooby_state_455c60|36|1 1218,0,0,1,0,0,0,0,1,0,1,0,0,0,0,1221,
scooby_state_455c60|40|1 1219,0,0,0,1,0,0,1,0,0,0,0,0,0,0,1221,
scooby_state_455c60|9|1 1220,0,0,0,0,0,0,0,0,0,1,0,0,0,0,1221,
scooby_state_455c60|26|1 1221,0,0,0,0,0,0,0,0,0,0,0,0,0,0,1221,
scooby_state_455dd1|24|1 1219,0,0,0,0,0,0,0,1,0,1,0,0,0,0,1221,
scooby_state_455d1a|45|1 1221,0,0,0,0,0,0,0,0,0,0,0,0,0,0,1221,
scooby_state_455c60|10|1 1220,0,0,0,0,0,0,0,1,0,0,0,0,0,0,1221,
scooby_state_455dd1|29|1 1221,0,0,0,0,0,0,0,0,0,0,0,0,0,0,1221,
scooby_state_455dd1|34|1 1220,0,0,1,0,0,0,0,0,0,0,0,0,0,0,1221,
scooby_state_455d1a|16|1 1220,0,0,0,1,0,0,0,0,0,0,0,0,0,0,1221,
scooby_state_455dd1|14|1 1217,1,0,1,0,0,1,0,0,0,0,0,1,0,0,1221,
scooby_state_455d1a|39|1 1218,0,0,0,1,1,0,0,0,1,0,0,0,0,0,1221,
scooby_state_455dd1|43|1 1221,0,0,0,0,0,0,0,0,0,0,0,0,0,0,1221,
scooby_state_455dd1|12|1 1218,0,0,0,0,1,0,0,0,1,0,0,0,0,1,1221,
scooby_state_455c60|29|1 1218,0,0,0,1,0,0,0,0,0,0,0,1,0,1,1221,
scooby_state_455c60|19|1 1219,0,0,0,0,0,0,0,0,1,0,1,0,0,0,1221,
scooby_state_455c60|23|1 1216,0,0,0,0,1,1,1,1,0,1,0,0,0,0,1221,
scooby_state_455d1a|20|1 1215,1,0,0,3,0,0,0,0,0,1,0,1,0,0,1221,
scooby_state_455d1a|26|1 1217,0,0,0,0,2,0,0,0,0,0,1,1,0,0,1221,
scooby_state_455c60|20|1 1219,0,0,0,0,0,0,2,0,0,0,0,0,0,0,1221,
scooby_state_455d1a|47|1 1219,1,0,0,0,1,0,0,0,0,0,0,0,0,0,1221,
scooby_state_455dd1|13|1 1220,1,0,0,0,0,0,0,0,0,0,0,0,0,0,1221,
scooby_state_455d1a|23|1 1220,0,0,0,0,0,0,0,0,0,0,1,0,0,0,1221,
scooby_state_455dd1|19|1 1216,0,0,0,0,1,0,0,0,1,1,1,0,0,1,1221,
scooby_state_455dd1|17|1 1220,0,0,0,0,0,0,0,0,0,1,0,0,0,0,1221,
scooby_state_455dd1|18|1 1219,0,0,0,0,0,0,0,0,0,0,1,0,1,0,1221,
scooby_state_455d1a|32|1 1220,0,0,0,1,0,0,0,0,0,0,0,0,0,0,1221,
scooby_state_455d1a|37|1 1218,0,0,0,0,0,0,1,0,0,0,0,1,0,1,1221,
scooby_state_455dd1|38|1 1219,0,0,0,0,1,0,0,0,0,0,0,0,0,1,1221,
scooby_state_455dd1|20|1 1218,1,0,0,0,0,0,0,0,1,0,0,0,1,0,1221,
scooby_state_455dd1|31|1 1220,0,0,0,0,0,0,0,0,0,0,0,0,0,1,1221,
scooby_state_455d1a|25|1 1220,0,1,0,0,0,0,0,0,0,0,0,0,0,0,1221,
scooby_state_455c60|15|1 1220,0,0,0,0,0,0,0,0,0,1,0,0,0,0,1221,
scooby_state_455dd1|28|1 1219,0,0,2,0,0,0,0,0,0,0,0,0,0,0,1221,
scooby_state_455d1a|30|1 1214,0,1,0,1,0,0,0,0,1,1,0,2,0,1,1221,
scooby_state_455d1a|15|1 1219,0,0,0,0,0,1,0,0,0,0,0,0,1,0,1221,
scooby_state_455dd1|32|1 1218,1,0,1,0,0,0,0,1,0,0,0,0,0,0,1221,
scooby_state_455dd1|45|1 1220,0,0,0,0,1,0,0,0,0,0,0,0,0,0,1221,
scooby_state_455d1a|14|1 1219,0,1,0,0,0,0,0,0,0,0,0,0,0,1,1221,
scooby_state_455dd1|15|1 1220,0,0,0,0,1,0,0,0,0,0,0,0,0,0,1221,
scooby_state_455dd1|42|1 1220,0,0,0,0,0,0,1,0,0,0,0,0,0,0,1221,
scooby_state_455d1a|41|1 1219,0,0,0,0,0,1,0,0,0,0,1,0,0,0,1221,
scooby_state_455c60|38|1 1219,0,0,0,0,1,1,0,0,0,0,0,0,0,0,1221,
scooby_state_455dd1|23|1 1220,0,0,0,0,0,0,0,1,0,0,0,0,0,0,1221,
scooby_state_455dd1|47|1 1220,0,0,0,0,0,1,0,0,0,0,0,0,0,0,1221,
scooby_state_455c60|41|1 1219,1,0,0,0,0,0,0,0,0,0,0,0,0,1,1221,
scooby_state_455c60|13|1 1219,0,1,0,0,0,0,1,0,0,0,0,0,0,0,1221,
scooby_state_455c60|16|1 1219,0,0,1,0,0,1,0,0,0,0,0,0,0,0,1221,
scooby_state_455d1a|8|1 1218,1,0,0,0,1,1,0,0,0,0,0,0,0,0,1221,
scooby_state_455dd1|16|1 1217,0,0,0,1,0,0,0,0,1,0,0,0,2,0,1221,
scooby_state_455c60|35|1 1221,0,0,0,0,0,0,0,0,0,0,0,0,0,0,1221,
scooby_state_455d1a|10|1 1217,1,0,0,0,0,0,0,0,0,1,1,0,0,1,1221,
scooby_state_455d1a|27|1 1220,0,0,0,0,0,0,0,0,0,1,0,0,0,0,1221,
scooby_state_455dd1|26|1 1221,0,0,0,0,0,0,0,0,0,0,0,0,0,0,1221,
scooby_state_455c60|37|1 1217,0,0,0,0,0,2,0,0,0,1,1,0,0,0,1221,
scooby_state_455d1a|42|1 1219,0,0,1,0,0,0,0,0,0,0,0,0,1,0,1221,
scooby_state_455dd1|39|1 1219,0,0,0,0,0,1,0,0,0,0,0,0,1,0,1221,
scooby_state_455c60|46|1 1219,0,0,0,0,1,0,1,0,0,0,0,0,0,0,1221,
scooby_state_455dd1|59|1 1219,0,1,0,0,0,0,0,0,0,0,0,0,0,0,1220,
scooby_state_455c60|49|1 1215,1,0,0,2,1,0,0,0,0,0,0,1,0,0,1220,
scooby_state_455dd1|6|1 1217,0,0,2,0,0,0,0,0,0,0,0,0,1,0,1220,
scooby_state_455c60|59|1 1218,0,1,0,0,0,0,0,0,0,0,1,0,0,0,1220,
scooby_state_455dd1|62|1 1219,0,0,0,0,0,0,0,0,0,0,0,1,0,0,1220,
scooby_state_455dd1|53|1 1215,1,0,1,1,0,0,0,0,1,1,0,0,0,0,1220,
scooby_state_455dd1|5|1 1219,0,0,0,0,0,0,0,0,1,0,0,0,0,0,1220,
scooby_state_455dd1|52|1 1219,0,0,0,0,0,0,1,0,0,0,0,0,0,0,1220,
scooby_state_455d1a|49|1 1215,0,0,0,0,0,0,0,1,0,0,2,0,0,2,1220,
scooby_state_455d1a|59|1 1218,0,1,0,0,0,0,1,0,0,0,0,0,0,0,1220,
scooby_state_455dd1|60|1 1216,1,1,0,1,0,0,0,0,0,0,1,0,0,0,1220,
scooby_state_455dd1|49|1 1219,0,0,0,1,0,0,0,0,0,0,0,0,0,0,1220,
scooby_state_455d1a|3|1 1220,0,0,0,0,0,0,0,0,0,0,0,0,0,0,1220,
scooby_state_455c60|51|1 1220,0,0,0,0,0,0,0,0,0,0,0,0,0,0,1220,
scooby_state_455c60|55|1 1218,0,0,1,0,0,0,0,0,0,0,0,1,0,0,1220,
scooby_state_455dd1|1|1 1220,0,0,0,0,0,0,0,0,0,0,0,0,0,0,1220,
scooby_state_455d1a|55|1 1219,0,0,0,0,1,0,0,0,0,0,0,0,0,0,1220,
scooby_state_455c60|53|1 1219,0,0,0,0,0,0,0,1,0,0,0,0,0,0,1220,
scooby_state_455c60|48|1 1215,0,0,0,0,2,0,0,0,1,0,0,1,1,0,1220,
scooby_state_455c60|52|1 1219,0,0,0,0,0,0,0,0,0,1,0,0,0,0,1220,
scooby_state_455d1a|52|1 1219,0,0,0,0,0,0,0,1,0,0,0,0,0,0,1220,
scooby_state_455dd1|56|1 1217,0,0,1,0,0,0,0,1,0,0,1,0,0,0,1220,
scooby_state_455dd1|51|1 1220,0,0,0,0,0,0,0,0,0,0,0,0,0,0,1220,
scooby_state_455dd1|58|1 1218,1,0,0,0,0,0,0,0,0,0,0,0,1,0,1220,
scooby_state_455c60|57|1 1216,0,0,0,1,0,0,0,1,1,0,0,0,0,1,1220,
scooby_state_455d1a|57|1 1219,0,0,0,0,0,0,0,0,1,0,0,0,0,0,1220,
scooby_state_455dd1|55|1 1218,0,0,0,0,1,0,0,1,0,0,0,0,0,0,1220,
scooby_state_455c60|58|1 1217,1,0,0,0,0,1,0,0,0,0,0,1,0,0,1220,
scooby_state_455c60|7|1 1217,0,0,1,0,0,0,0,1,0,0,1,0,0,0,1220,
scooby_state_455d1a|58|1 1219,0,0,0,0,0,0,0,0,1,0,0,0,0,0,1220,
scooby_state_455dd1|50|1 1218,0,0,0,0,0,0,0,0,1,0,0,0,1,0,1220,
scooby_state_455c60|54|1 1220,0,0,0,0,0,0,0,0,0,0,0,0,0,0,1220,
scooby_state_455c60|50|1 1214,0,0,0,1,1,0,0,0,0,0,2,0,1,1,1220,
scooby_state_455d1a|2|1 1218,0,0,0,0,0,0,1,0,0,0,0,0,1,0,1220,
scooby_state_455dd1|7|1 1219,0,0,0,0,0,0,0,1,0,0,0,0,0,0,1220,
scooby_state_455dd1|0|0 1217,1,0,0,0,0,0,1,1,0,0,0,0,0,0,1220,
scooby_state_455c60|2|1 1215,2,0,0,1,0,0,0,0,1,0,0,0,1,0,1220,
scooby_state_455c60|56|1 1215,0,1,2,0,0,0,0,1,1,0,0,0,0,0,1220,
scooby_state_455dd1|2|1 1219,0,0,0,0,0,0,0,0,0,0,0,0,0,1,1220,
scooby_state_455d1a|4|1 1217,1,0,0,0,0,0,0,1,0,0,0,1,0,0,1220,
scooby_state_455d1a|54|1 1218,1,0,0,0,0,0,0,0,0,0,0,0,1,0,1220,
scooby_state_455c60|63|1 1218,0,1,0,0,0,0,0,0,0,0,0,1,0,0,1220,
scooby_state_455dd1|3|1 1218,0,0,0,0,1,1,0,0,0,0,0,0,0,0,1220,
scooby_state_455d1a|56|1 1215,0,0,0,1,0,0,1,3,0,0,0,0,0,0,1220,
scooby_state_455dd1|54|1 1219,0,0,0,0,0,0,0,0,1,0,0,0,0,0,1220,
scooby_state_455d1a|61|1 1219,0,0,0,0,0,0,0,0,0,0,0,1,0,0,1220,
scooby_state_455d1a|50|1 1220,0,0,0,0,0,0,0,0,0,0,0,0,0,0,1220,
scooby_state_455dd1|4|1 1218,1,0,0,0,1,0,0,0,0,0,0,0,0,0,1220,
scooby_state_455c60|5|1 1217,0,0,0,0,0,2,0,1,0,0,0,0,0,0,1220,
scooby_state_455d1a|5|1 1216,0,0,1,0,2,1,0,0,0,0,0,0,0,0,1220,
scooby_state_455d1a|48|1 1217,0,1,0,0,0,0,0,0,0,0,1,1,0,0,1220,
scooby_state_455d1a|6|1 1219,0,0,0,0,0,0,0,0,0,0,1,0,0,0,1220,
scooby_state_455c60|60|1 1217,0,1,0,0,0,1,1,0,0,0,0,0,0,0,1220,
scooby_state_455d1a|7|1 1216,1,0,0,0,0,0,1,0,0,0,1,0,0,1,1220,
scooby_state_455c60|1|1 1218,0,1,0,0,0,0,1,0,0,0,0,0,0,0,1220,
scooby_state_455c60|61|1 1219,0,0,0,0,0,0,0,0,0,1,0,0,0,0,1220,
scooby_state_455dd1|61|1 1218,0,0,0,0,0,0,0,0,0,0,1,1,0,0,1220,
scooby_state_455c60|4|1 1217,0,0,0,0,0,0,1,0,0,1,0,0,0,1,1220,
scooby_state_455dd1|63|1 1218,0,0,0,0,0,0,0,1,0,0,0,1,0,0,1220,
scooby_state_455c60|6|1 1218,0,0,0,0,0,0,0,0,0,1,0,0,1,0,1220,
scooby_state_455dd1|48|1 1218,0,0,0,0,0,0,0,1,0,0,0,0,0,1,1220,
scooby_state_455c60|62|1 1218,0,0,0,0,0,0,0,0,0,0,0,0,2,0,1220,
scooby_state_455c60|3|1 1213,1,1,2,0,1,1,0,0,0,0,1,0,0,0,1220,
scooby_state_455dd1|57|1 1218,0,0,0,0,0,1,0,0,0,0,0,0,1,0,1220,
scooby_state_455d1a|62|1 1216,0,1,0,1,0,0,0,1,1,0,0,0,0,0,1220,
scooby_state_455d1a|51|1 1217,0,0,0,0,0,0,1,0,0,0,0,0,1,1,1220,
scooby_state_455d1a|63|1 1218,0,0,0,1,0,0,0,1,0,0,0,0,0,0,1220,
scooby_state_455d1a|60|1 1216,1,0,1,0,0,0,0,0,1,0,0,0,0,1,1220,
scooby_state_455d1a|1|1 1219,0,0,0,0,0,0,1,0,0,0,0,0,0,0,1220,
scooby_state_455c60|8|1 1217,1,0,1,0,0,0,0,0,0,0,0,0,1,0,1220,
scooby_state_455d1a|0|0 1217,0,0,0,0,1,1,0,0,1,0,0,0,0,0,1220,
scooby_state_455c60|0|0 1219,0,0,0,0,0,0,1,0,0,0,0,0,0,0,1220,
scooby_state_455d1a|53|1 1217,1,0,1,0,0,0,1,0,0,0,0,0,0,0,1220,
scooby_state_455c8d|60|1 1128,0,0,0,0,0,0,0,0,0,0,0,0,0,0,1128,
scooby_state_455d75|20|1 1123,0,0,0,2,0,0,0,0,1,0,1,0,0,1,1128,
scooby_state_455c8d|2|1 1127,0,0,0,0,0,0,0,0,1,0,0,0,0,0,1128,
scooby_state_455c8d|41|1 1126,0,0,0,0,0,0,0,0,0,0,0,1,1,0,1128,
scooby_state_455c8d|30|1 1125,0,1,1,0,0,0,0,0,0,1,0,0,0,0,1128,
scooby_state_455c8d|19|1 1125,0,1,0,0,0,0,0,1,0,0,0,0,1,0,1128,
scooby_state_455c8d|7|1 1127,0,0,0,0,0,0,1,0,0,0,0,0,0,0,1128,
scooby_state_455d75|5|1 1125,0,0,0,0,0,1,0,0,0,0,1,1,0,0,1128,
scooby_state_455c8d|10|1 1124,1,1,0,0,0,0,0,0,0,1,1,0,0,0,1128,
scooby_state_455c8d|32|1 1126,0,0,0,0,0,1,0,1,0,0,0,0,0,0,1128,
scooby_state_455c8d|27|1 1127,1,0,0,0,0,0,0,0,0,0,0,0,0,0,1128,
scooby_state_455c8d|52|1 1127,0,0,1,0,0,0,0,0,0,0,0,0,0,0,1128,
scooby_state_455c8d|21|1 1128,0,0,0,0,0,0,0,0,0,0,0,0,0,0,1128,
scooby_state_455c8d|58|1 1124,0,1,0,1,0,0,0,0,0,1,0,0,0,1,1128,
scooby_state_455d75|15|1 1126,0,0,0,0,0,0,0,1,0,0,0,0,0,1,1128,
scooby_state_455c8d|35|1 1128,0,0,0,0,0,0,0,0,0,0,0,0,0,0,1128,
scooby_state_455d75|10|1 1126,0,1,0,0,0,0,0,0,1,0,0,0,0,0,1128,
scooby_state_455c8d|63|1 1121,0,1,0,0,0,1,1,1,0,0,1,1,1,0,1128,
scooby_state_455c8d|5|1 1126,0,0,0,0,0,0,0,0,0,0,0,1,1,0,1128,
scooby_state_455c8d|44|1 1125,0,0,0,0,0,0,0,1,1,0,1,0,0,0,1128,
scooby_state_455c8d|24|1 1126,0,0,0,0,0,1,0,0,0,0,0,1,0,0,1128,
scooby_state_455c8d|38|1 1123,0,0,0,0,0,1,0,1,0,0,2,0,1,0,1128,
scooby_state_455c8d|55|1 1127,0,0,0,0,0,0,0,0,0,0,1,0,0,0,1128,
scooby_state_455c8d|16|1 1126,0,0,1,0,0,0,0,0,0,0,0,0,0,0,1127,
scooby_state_455c8d|8|1 1125,0,0,0,0,0,1,0,0,0,0,0,0,0,1,1127,
scooby_state_455d75|53|1 1126,0,0,0,0,1,0,0,0,0,0,0,0,0,0,1127,
scooby_state_455c8d|13|1 1125,0,0,0,0,0,0,0,0,1,0,0,1,0,0,1127,
scooby_state_455d75|8|1 1125,0,0,1,0,0,0,0,0,0,1,0,0,0,0,1127,
scooby_state_455c8d|33|1 1122,1,0,0,0,1,0,1,0,1,0,0,0,1,0,1127,
scooby_state_455d75|28|1 1126,0,0,0,0,0,0,0,0,0,0,0,0,0,1,1127,
scooby_state_455c8d|46|1 1125,0,0,1,1,0,0,0,0,0,0,0,0,0,0,1127,
scooby_state_455c8d|43|1 1125,0,0,0,0,1,0,0,0,1,0,0,0,0,0,1127,
scooby_state_455d75|33|1 1127,0,0,0,0,0,0,0,0,0,0,0,0,0,0,1127,
scooby_state_455d75|31|1 1124,1,0,0,0,0,0,0,1,1,0,0,0,0,0,1127,
scooby_state_455d75|49|1 1125,0,0,0,0,0,0,0,1,0,0,0,0,1,0,1127,
scooby_state_455d75|3|1 1127,0,0,0,0,0,0,0,0,0,0,0,0,0,0,1127,
scooby_state_455d75|48|1 1126,0,0,0,0,0,0,0,0,1,0,0,0,0,0,1127,
scooby_state_455d75|30|1 1120,0,1,1,0,1,1,2,0,0,0,0,1,0,0,1127,
scooby_state_455c8d|29|1 1124,0,0,0,0,1,0,0,1,0,0,0,0,1,0,1127,
scooby_state_455d75|50|1 1126,0,0,0,0,0,0,0,0,0,1,0,0,0,0,1127,
scooby_state_455d75|40|1 1123,0,1,0,0,0,0,1,0,0,0,0,0,0,2,1127,
scooby_state_455d75|45|1 1127,0,0,0,0,0,0,0,0,0,0,0,0,0,0,1127,
scooby_state_455d75|22|1 1124,0,0,0,0,2,0,0,0,1,0,0,0,0,0,1127,
scooby_state_455d75|41|1 1126,0,1,0,0,0,0,0,0,0,0,0,0,0,0,1127,
scooby_state_455c8d|22|1 1125,0,0,1,0,0,0,1,0,0,0,0,0,0,0,1127,
scooby_state_455d75|39|1 1123,1,1,0,0,1,0,0,0,0,0,1,0,0,0,1127,
scooby_state_455c8d|49|1 1123,1,0,0,1,0,1,0,0,0,0,0,1,0,0,1127,
scooby_state_455c8d|36|1 1122,0,0,1,1,0,0,0,0,2,0,1,0,0,0,1127,
scooby_state_455d75|25|1 1124,0,0,0,0,1,0,1,0,0,1,0,0,0,0,1127,
scooby_state_455d75|59|1 1124,1,0,0,0,0,0,1,0,1,0,0,0,0,0,1127,
scooby_state_455d75|61|1 1127,0,0,0,0,0,0,0,0,0,0,0,0,0,0,1127,
scooby_state_455d75|51|1 1124,1,0,0,0,0,0,1,0,0,0,0,1,0,0,1127,
scooby_state_455d75|17|1 1124,0,0,0,1,1,0,0,0,1,0,0,0,0,0,1127,
scooby_state_455d75|43|1 1125,0,0,0,0,0,1,0,1,0,0,0,0,0,0,1127,
scooby_state_455c8d|57|1 1126,0,0,0,0,0,0,0,1,0,0,0,0,0,0,1127,
scooby_state_455d75|55|1 1126,0,0,0,0,0,0,0,0,0,0,0,0,0,1,1127,
scooby_state_455d75|7|1 1127,0,0,0,0,0,0,0,0,0,0,0,0,0,0,1127,
scooby_state_455d75|2|1 1125,1,0,0,0,0,0,0,1,0,0,0,0,0,0,1127,
scooby_state_455d75|54|1 1122,0,0,0,0,0,1,0,0,1,1,0,0,0,2,1127,
scooby_state_455d75|29|1 1126,1,0,0,0,0,0,0,0,0,0,0,0,0,0,1127,
scooby_state_455c8d|61|1 1124,0,1,0,0,0,0,0,0,0,0,0,0,1,1,1127,
scooby_state_455d75|35|1 1124,0,1,0,0,0,0,0,0,0,0,0,1,1,0,1127,
scooby_state_455d75|13|1 1126,0,0,0,0,0,0,0,0,1,0,0,0,0,0,1127,
scooby_state_455d75|38|1 1127,0,0,0,0,0,0,0,0,0,0,0,0,0,0,1127,
scooby_state_455d75|36|1 1126,0,0,0,0,0,0,1,0,0,0,0,0,0,0,1127,
scooby_state_455d75|44|1 1124,0,0,0,0,1,1,0,0,0,0,0,1,0,0,1127,
scooby_state_455d75|23|1 1126,0,0,0,0,0,0,0,0,0,0,0,1,0,0,1127,
scooby_state_455d75|34|1 1123,0,0,0,0,0,0,0,0,0,1,1,1,0,1,1127,
scooby_state_455d75|46|1 1127,0,0,0,0,0,0,0,0,0,0,0,0,0,0,1127,
scooby_state_455c8d|47|1 1125,0,0,1,0,0,0,0,1,0,0,0,0,0,0,1127,
scooby_state_455c8d|4|1 1126,0,0,0,0,0,1,0,0,0,0,0,0,0,0,1127,
scooby_state_455d75|18|1 1125,0,0,1,1,0,0,0,0,0,0,0,0,0,0,1127,
scooby_state_455d75|62|1 1125,0,0,0,0,0,0,1,0,0,0,0,0,0,1,1127,
scooby_state_455d75|12|1 1126,0,0,0,0,0,0,0,0,0,0,0,0,1,0,1127,
scooby_state_455d75|56|1 1125,0,0,0,0,0,0,0,0,0,0,0,1,0,0,1126,
scooby_state_455d75|21|1 1122,0,1,0,1,0,0,1,0,0,0,0,0,1,0,1126,
scooby_state_455c8d|53|1 1126,0,0,0,0,0,0,0,0,0,0,0,0,0,0,1126,
scooby_state_455d75|47|1 1126,0,0,0,0,0,0,0,0,0,0,0,0,0,0,1126,
scooby_state_455c8d|26|1 1125,0,0,1,0,0,0,0,0,0,0,0,0,0,0,1126,
scooby_state_455c8d|54|1 1124,0,1,0,0,0,0,0,0,0,0,1,0,0,0,1126,
scooby_state_455c8d|20|1 1126,0,0,0,0,0,0,0,0,0,0,0,0,0,0,1126,
scooby_state_455d75|63|1 1123,0,0,0,1,1,0,0,0,0,1,0,0,0,0,1126,
scooby_state_455d75|19|1 1121,0,1,0,1,0,0,1,1,0,0,0,1,0,0,1126,
scooby_state_455c8d|42|1 1126,0,0,0,0,0,0,0,0,0,0,0,0,0,0,1126,
scooby_state_455d75|24|1 1124,0,0,2,0,0,0,0,0,0,0,0,0,0,0,1126,
scooby_state_455c8d|9|1 1124,1,0,0,0,1,0,0,0,0,0,0,0,0,0,1126,
scooby_state_455d75|52|1 1125,1,0,0,0,0,0,0,0,0,0,0,0,0,0,1126,
scooby_state_455c8d|11|1 1125,0,0,0,0,0,0,0,0,0,0,0,1,0,0,1126,
scooby_state_455c8d|28|1 1124,0,0,0,0,0,1,0,0,0,0,1,0,0,0,1126,
scooby_state_455d75|1|1 1126,0,0,0,0,0,0,0,0,0,0,0,0,0,0,1126,
scooby_state_455d75|26|1 1119,2,0,1,0,1,0,0,0,1,1,1,0,0,0,1126,
scooby_state_455d75|42|1 1124,1,0,0,1,0,0,0,0,0,0,0,0,0,0,1126,
scooby_state_455d75|27|1 1124,0,0,0,0,1,0,1,0,0,0,0,0,0,0,1126,
scooby_state_455c8d|50|1 1121,0,0,0,2,2,0,0,0,0,1,0,0,0,0,1126,
scooby_state_455d75|32|1 1125,0,0,0,0,0,0,0,0,0,0,1,0,0,0,1126,
scooby_state_455c8d|1|1 1125,0,0,0,0,0,0,0,0,0,1,0,0,0,0,1126,
scooby_state_455d75|14|1 1125,0,0,0,0,0,0,0,0,0,0,0,1,0,0,1126,
scooby_state_455d75|6|1 1126,0,0,0,0,0,0,0,0,0,0,0,0,0,0,1126,
scooby_state_455d75|11|1 1125,0,0,0,0,0,0,0,0,0,0,1,0,0,0,1126,
scooby_state_455d75|9|1 1123,1,0,0,0,0,1,0,0,0,1,0,0,0,0,1126,
scooby_state_455c8d|3|1 1124,0,0,0,1,0,0,0,1,0,0,0,0,0,0,1126,
scooby_state_455c8d|18|1 1121,0,1,0,1,0,0,0,0,1,1,0,1,0,0,1126,
scooby_state_455d75|58|1 1122,1,0,0,0,0,0,1,0,2,0,0,0,0,0,1126,
scooby_state_455c8d|23|1 1124,0,0,0,0,0,0,0,0,1,0,1,0,0,0,1126,
scooby_state_455c8d|6|1 1126,0,0,0,0,0,0,0,0,0,0,0,0,0,0,1126,
scooby_state_455d75|16|1 1123,1,0,0,1,1,0,0,0,0,0,0,0,0,0,1126,
scooby_state_455d75|57|1 1123,0,1,0,0,2,0,0,0,0,0,0,0,0,0,1126,
scooby_state_455c8d|25|1 1122,0,0,0,0,0,1,0,1,0,1,1,0,0,0,1126,
scooby_state_455c8d|31|1 1123,0,0,0,1,0,0,0,1,0,0,1,0,0,0,1126,
scooby_state_455c8d|17|1 1125,0,0,0,0,0,0,0,1,0,0,0,0,0,0,1126,
scooby_state_455d75|37|1 1126,0,0,0,0,0,0,0,0,0,0,0,0,0,0,1126,
scooby_state_455d75|60|1 1125,0,0,0,0,0,0,0,0,0,1,0,0,0,0,1126,
scooby_state_455c8d|40|1 1126,0,0,0,0,0,0,0,0,0,0,0,0,0,0,1126,
scooby_state_455d75|4|1 1125,0,0,0,0,0,0,0,0,0,0,1,0,0,0,1126,
scooby_state_455c8d|15|1 1122,0,0,0,0,0,0,1,0,1,0,0,0,1,0,1125,
scooby_state_455c8d|59|1 1122,1,0,0,0,0,1,0,0,0,1,0,0,0,0,1125,
scooby_state_455c8d|45|1 1125,0,0,0,0,0,0,0,0,0,0,0,0,0,0,1125,
scooby_state_455c8d|12|1 1122,0,1,0,2,0,0,0,0,0,0,0,0,0,0,1125,
scooby_state_455c8d|56|1 1123,1,0,0,0,0,0,0,0,0,0,1,0,0,0,1125,
scooby_state_455c8d|14|1 1124,0,1,0,0,0,0,0,0,0,0,0,0,0,0,1125,
scooby_state_455c8d|39|1 1125,0,0,0,0,0,0,0,0,0,0,0,0,0,0,1125,
scooby_state_455c8d|51|1 1121,1,0,0,0,0,0,0,0,0,0,1,0,1,0,1124,
scooby_state_455c8d|37|1 1122,0,1,0,0,0,0,1,0,0,0,0,0,0,0,1124,
scooby_state_455c8d|62|1 1119,0,0,2,0,0,0,1,0,1,0,0,0,0,1,1124,
scooby_state_455c8d|34|1 1122,0,0,0,0,0,0,0,0,0,0,0,0,1,0,1123,
scooby_state_455c8d|48|1 1122,0,0,0,0,0,0,0,0,0,0,0,0,0,1,1123,
scooby_state_455cc3|48|1 1031,0,0,0,0,0,0,1,0,0,0,0,1,1,0,1034,
scooby_state_455c73|27|1 1033,0,0,0,0,0,0,0,0,0,0,0,1,0,0,1034,
scooby_state_455c73|42|1 1030,0,0,0,0,0,1,1,0,0,0,1,0,1,0,1034,
scooby_state_455c73|36|1 1032,0,0,0,1,0,0,0,0,0,0,0,0,0,1,1034,
scooby_state_455c73|9|1 1034,0,0,0,0,0,0,0,0,0,0,0,0,0,0,1034,
scooby_state_455cc3|19|1 1033,0,0,0,1,0,0,0,0,0,0,0,0,0,0,1034,
scooby_state_455c73|60|1 1033,0,0,0,0,0,0,0,0,0,1,0,0,0,0,1034,
scooby_state_455c73|51|1 1033,0,0,0,0,0,0,0,0,0,0,1,0,0,0,1034,
scooby_state_455e34|49|1 1034,0,0,0,0,0,0,0,0,0,0,0,0,0,0,1034,
scooby_state_455cc3|53|1 1033,0,0,1,0,0,0,0,0,0,0,0,0,0,0,1034,
scooby_state_455cc3|14|1 1033,0,0,0,0,0,1,0,0,0,0,0,0,0,0,1034,
scooby_state_455c73|18|1 1031,1,0,0,0,0,0,0,0,0,1,1,0,0,0,1034,
scooby_state_455cc3|18|1 1031,0,0,0,0,0,1,0,0,1,0,0,0,0,1,1034,
scooby_state_455e34|59|1 1030,0,0,0,0,0,0,1,0,0,0,0,0,1,1,1033,
scooby_state_455e34|2|1 1030,0,0,0,0,0,1,0,0,0,1,0,0,0,1,1033,
scooby_state_455cc3|20|1 1031,0,0,1,0,0,0,0,0,0,0,0,0,0,1,1033,
scooby_state_455e34|18|1 1028,0,0,0,0,0,2,0,0,0,0,0,0,1,2,1033,
scooby_state_455e34|31|1 1032,0,1,0,0,0,0,0,0,0,0,0,0,0,0,1033,
scooby_state_455cc3|62|1 1032,0,0,0,0,0,0,0,0,0,0,1,0,0,0,1033,
scooby_state_455e34|60|1 1032,0,0,0,0,0,0,0,0,1,0,0,0,0,0,1033,
scooby_state_455e34|58|1 1032,0,0,0,0,0,0,0,0,0,1,0,0,0,0,1033,
scooby_state_455cc3|60|1 1033,0,0,0,0,0,0,0,0,0,0,0,0,0,0,1033,
scooby_state_455e34|34|1 1031,1,0,0,0,0,0,0,0,0,0,0,0,1,0,1033,
scooby_state_455e34|38|1 1030,0,1,0,0,0,0,0,1,0,0,0,0,1,0,1033,
scooby_state_455c73|6|1 1031,0,0,0,0,0,1,0,0,0,0,0,0,0,1,1033,
scooby_state_455c73|38|1 1032,0,0,0,0,0,0,1,0,0,0,0,0,0,0,1033,
scooby_state_455c73|35|1 1031,0,0,0,0,1,0,0,1,0,0,0,0,0,0,1033,
scooby_state_455e34|46|1 1031,1,0,0,0,0,0,1,0,0,0,0,0,0,0,1033,
scooby_state_455cc3|46|1 1030,0,1,0,0,0,0,0,0,0,0,0,0,1,1,1033,
scooby_state_455c73|13|1 1031,0,0,1,0,0,0,0,0,0,0,0,0,1,0,1033,
scooby_state_455cc3|16|1 1030,0,0,0,0,0,0,0,1,1,0,0,0,0,1,1033,
scooby_state_455e34|37|1 1031,1,0,0,1,0,0,0,0,0,0,0,0,0,0,1033,
scooby_state_455c73|20|1 1032,0,0,0,0,0,0,1,0,0,0,0,0,0,0,1033,
scooby_state_455e34|57|1 1029,0,1,0,0,0,0,2,0,0,1,0,0,0,0,1033,
scooby_state_455cc3|30|1 1032,0,0,0,0,0,0,0,0,1,0,0,0,0,0,1033,
scooby_state_455c73|37|1 1030,0,0,0,0,0,0,0,0,0,1,0,0,1,1,1033,
scooby_state_455e34|29|1 1030,1,0,0,0,0,0,0,0,0,1,0,0,1,0,1033,
scooby_state_455c73|4|1 1032,0,0,0,0,0,0,0,0,1,0,0,0,0,0,1033,
scooby_state_455e34|56|1 1031,0,0,0,0,0,0,0,1,0,0,0,0,0,1,1033,
scooby_state_455e34|4|1 1031,1,0,0,0,0,0,0,1,0,0,0,0,0,0,1033,
scooby_state_455cc3|56|1 1032,0,0,0,0,0,0,0,0,0,0,1,0,0,0,1033,
scooby_state_455e34|15|1 1028,0,0,0,0,0,0,1,1,1,0,1,0,1,0,1033,
scooby_state_455e34|62|1 1031,0,0,0,0,0,0,0,0,0,0,1,1,0,0,1033,
scooby_state_455cc3|22|1 1031,1,0,0,0,0,0,0,0,0,0,0,0,0,1,1033,
scooby_state_455e34|28|1 1033,0,0,0,0,0,0,0,0,0,0,0,0,0,0,1033,
scooby_state_455c73|56|1 1033,0,0,0,0,0,0,0,0,0,0,0,0,0,0,1033,
scooby_state_455c73|11|1 1031,0,0,0,0,0,0,1,0,0,1,0,0,0,0,1033,
scooby_state_455cc3|11|1 1031,0,0,0,0,0,2,0,0,0,0,0,0,0,0,1033,
scooby_state_455c73|22|1 1032,0,0,0,0,0,0,1,0,0,0,0,0,0,0,1033,
scooby_state_455c73|25|1 1032,0,0,0,1,0,0,0,0,0,0,0,0,0,0,1033,
scooby_state_455cc3|23|1 1033,0,0,0,0,0,0,0,0,0,0,0,0,0,0,1033,
scooby_state_455e34|13|1 1033,0,0,0,0,0,0,0,0,0,0,0,0,0,0,1033,
scooby_state_455cc3|13|1 1033,0,0,0,0,0,0,0,0,0,0,0,0,0,0,1033,
scooby_state_455c73|54|1 1033,0,0,0,0,0,0,0,0,0,0,0,0,0,0,1033,
scooby_state_455c73|7|1 1033,0,0,0,0,0,0,0,0,0,0,0,0,0,0,1033,
scooby_state_455e34|9|1 1029,1,1,1,0,0,0,0,0,0,0,1,0,0,0,1033,
scooby_state_455cc3|3|1 1033,0,0,0,0,0,0,0,0,0,0,0,0,0,0,1033,
scooby_state_455cc3|8|1 1031,0,1,0,0,0,0,0,0,0,0,0,0,0,1,1033,
scooby_state_455c73|46|1 1033,0,0,0,0,0,0,0,0,0,0,0,0,0,0,1033,
scooby_state_455e34|7|1 1032,0,0,0,0,0,0,1,0,0,0,0,0,0,0,1033,
scooby_state_455e34|26|1 1033,0,0,0,0,0,0,0,0,0,0,0,0,0,0,1033,
scooby_state_455e34|61|1 1031,0,0,0,0,0,0,0,1,0,0,1,0,0,0,1033,
scooby_state_455cc3|58|1 1032,0,0,0,0,0,0,0,0,0,0,0,0,0,1,1033,
scooby_state_455e34|43|1 1032,0,0,0,0,0,0,1,0,0,0,0,0,0,0,1033,
scooby_state_455e34|6|1 1033,0,0,0,0,0,0,0,0,0,0,0,0,0,0,1033,
scooby_state_455cc3|21|1 1031,0,0,0,0,0,0,0,0,0,0,0,1,1,0,1033,
scooby_state_455cc3|17|1 1031,1,0,0,0,0,0,0,0,0,0,0,1,0,0,1033,
scooby_state_455c73|1|1 1029,0,0,0,0,0,1,0,1,2,0,0,0,0,0,1033,
scooby_state_455c73|15|1 1030,0,0,0,1,0,0,0,1,0,0,0,0,0,1,1033,
scooby_state_455e34|1|1 1031,0,0,0,0,1,0,0,0,0,0,0,1,0,0,1033,
scooby_state_455c73|40|1 1033,0,0,0,0,0,0,0,0,0,0,0,0,0,0,1033,
scooby_state_455cc3|26|1 1031,2,0,0,0,0,0,0,0,0,0,0,0,0,0,1033,
scooby_state_455e34|11|1 1031,0,0,0,0,0,1,0,1,0,0,0,0,0,0,1033,
scooby_state_455e34|55|1 1031,0,0,0,0,0,1,0,0,0,0,0,0,1,0,1033,
scooby_state_455e34|27|1 1031,0,0,0,0,0,1,0,0,1,0,0,0,0,0,1033,
scooby_state_455c73|58|1 1030,0,0,0,0,1,0,0,0,0,0,0,0,0,2,1033,
scooby_state_455c73|62|1 1033,0,0,0,0,0,0,0,0,0,0,0,0,0,0,1033,
scooby_state_455c73|44|1 1031,0,0,0,0,0,0,0,0,0,1,0,0,1,0,1033,
scooby_state_455e34|25|1 1031,0,1,0,0,0,0,0,0,0,0,0,1,0,0,1033,
scooby_state_455e34|21|1 1033,0,0,0,0,0,0,0,0,0,0,0,0,0,0,1033,
scooby_state_455cc3|54|1 1032,0,0,0,0,0,0,0,1,0,0,0,0,0,0,1033,
scooby_state_455e34|36|1 1032,1,0,0,0,0,0,0,0,0,0,0,0,0,0,1033,
scooby_state_455cc3|41|1 1031,0,0,0,1,1,0,0,0,0,0,0,0,0,0,1033,
scooby_state_455cc3|37|1 1031,0,0,0,0,0,1,0,0,0,0,1,0,0,0,1033,
scooby_state_455c73|24|1 1029,1,0,0,0,0,1,0,0,0,0,2,0,0,0,1033,
scooby_state_455c73|31|1 1031,0,1,0,0,0,0,0,0,1,0,0,0,0,0,1033,
scooby_state_455cc3|2|1 1031,0,0,0,2,0,0,0,0,0,0,0,0,0,0,1033,
scooby_state_455e34|22|1 1033,0,0,0,0,0,0,0,0,0,0,0,0,0,0,1033,
scooby_state_455cc3|36|1 1033,0,0,0,0,0,0,0,0,0,0,0,0,0,0,1033,
scooby_state_455c73|63|1 1032,0,0,0,0,0,0,0,0,0,0,0,1,0,0,1033,
scooby_state_455c73|23|1 1030,0,0,0,0,0,0,1,0,0,0,1,0,0,1,1033,
scooby_state_455e34|32|1 1032,0,0,0,0,0,0,0,0,1,0,0,0,0,0,1033,
scooby_state_455c73|34|1 1029,1,0,0,0,1,1,0,1,0,0,0,0,0,0,1033,
scooby_state_455cc3|55|1 1032,1,0,0,0,0,0,0,0,0,0,0,0,0,0,1033,
scooby_state_455c73|14|1 1032,0,0,0,0,0,0,0,0,1,0,0,0,0,0,1033,
scooby_state_455cc3|24|1 1032,0,1,0,0,0,0,0,0,0,0,0,0,0,0,1033,
scooby_state_455e34|44|1 1031,0,1,0,0,0,0,0,1,0,0,0,0,0,0,1033,
scooby_state_455c73|49|1 1032,0,0,0,0,0,0,0,0,0,0,0,0,0,1,1033,
scooby_state_455c73|16|1 1029,0,0,0,0,1,0,0,1,0,1,1,0,0,0,1033,
scooby_state_455cc3|61|1 1032,0,0,0,0,0,0,0,0,0,0,1,0,0,0,1033,
scooby_state_455e34|41|1 1033,0,0,0,0,0,0,0,0,0,0,0,0,0,0,1033,
scooby_state_455e34|42|1 1033,0,0,0,0,0,0,0,0,0,0,0,0,0,0,1033,
scooby_state_455e34|3|1 1032,0,0,0,0,0,0,0,0,1,0,0,0,0,0,1033,
scooby_state_455e34|48|1 1032,0,0,0,0,0,0,0,0,0,0,0,0,1,0,1033,
scooby_state_455cc3|59|1 1031,0,0,1,0,0,0,0,0,0,1,0,0,0,0,1033,
scooby_state_455cc3|33|1 1033,0,0,0,0,0,0,0,0,0,0,0,0,0,0,1033,
scooby_state_455c73|5|1 1031,0,0,0,0,0,1,0,0,1,0,0,0,0,0,1033,
scooby_state_455cc3|29|1 1030,0,0,0,0,0,0,0,0,0,2,0,1,0,0,1033,
scooby_state_455e34|33|1 1031,0,0,0,0,0,0,0,0,0,0,0,0,1,1,1033,
scooby_state_455cc3|27|1 1031,1,0,0,0,0,1,0,0,0,0,0,0,0,0,1033,
scooby_state_455c73|53|1 1031,0,0,0,0,1,0,1,0,0,0,0,0,0,0,1033,
scooby_state_455c73|3|1 1031,0,1,0,0,0,0,0,0,0,1,0,0,0,0,1033,
scooby_state_455e34|14|1 1030,1,0,0,0,0,1,0,0,0,0,0,0,0,1,1033,
scooby_state_455e34|8|1 1032,0,0,0,0,0,0,0,0,1,0,0,0,0,0,1033,
scooby_state_455e34|45|1 1031,0,0,0,0,0,0,0,1,1,0,0,0,0,0,1033,
scooby_state_455cc3|39|1 1030,0,1,0,0,0,0,0,1,0,0,1,0,0,0,1033,
scooby_state_455e34|52|1 1033,0,0,0,0,0,0,0,0,0,0,0,0,0,0,1033,
scooby_state_455c73|33|1 1031,0,0,0,1,0,0,1,0,0,0,0,0,0,0,1033,
scooby_state_455c73|47|1 1031,0,2,0,0,0,0,0,0,0,0,0,0,0,0,1033,
scooby_state_455cc3|1|1 1033,0,0,0,0,0,0,0,0,0,0,0,0,0,0,1033,
scooby_state_455cc3|34|1 1033,0,0,0,0,0,0,0,0,0,0,0,0,0,0,1033,
scooby_state_455cc3|52|1 1031,0,0,0,1,0,0,0,1,0,0,0,0,0,0,1033,
scooby_state_455cc3|4|1 1031,1,0,0,0,0,1,0,0,0,0,0,0,0,0,1033,
scooby_state_455cc3|15|1 1033,0,0,0,0,0,0,0,0,0,0,0,0,0,0,1033,
scooby_state_455e34|30|1 1029,0,0,0,0,0,0,1,0,1,0,0,2,0,0,1033,
scooby_state_455cc3|47|1 1029,0,0,0,1,0,1,1,0,0,0,1,0,0,0,1033,
scooby_state_455cc3|49|1 1033,0,0,0,0,0,0,0,0,0,0,0,0,0,0,1033,
scooby_state_455c73|29|1 1032,0,0,0,0,0,0,0,0,0,1,0,0,0,0,1033,
scooby_state_455c73|32|1 1033,0,0,0,0,0,0,0,0,0,0,0,0,0,0,1033,
scooby_state_455cc3|63|1 1028,0,0,0,2,0,1,0,0,0,0,0,0,1,1,1033,
scooby_state_455e34|12|1 1030,1,0,1,0,0,0,0,0,0,0,0,1,0,0,1033,
scooby_state_455e34|63|1 1032,0,1,0,0,0,0,0,0,0,0,0,0,0,0,1033,
scooby_state_455c73|45|1 1031,0,0,0,0,0,1,0,0,0,0,0,0,0,1,1033,
scooby_state_455e34|40|1 1031,0,2,0,0,0,0,0,0,0,0,0,0,0,0,1033,
scooby_state_455cc3|45|1 1030,0,0,1,0,1,0,0,0,0,0,0,0,0,1,1033,
scooby_state_455c73|55|1 1033,0,0,0,0,0,0,0,0,0,0,0,0,0,0,1033,
scooby_state_455cc3|35|1 1033,0,0,0,0,0,0,0,0,0,0,0,0,0,0,1033,
scooby_state_455cc3|28|1 1032,0,0,0,0,0,0,0,0,0,1,0,0,0,0,1033,
scooby_state_455e34|19|1 1032,0,0,0,0,0,1,0,0,0,0,0,0,0,0,1033,
scooby_state_455e34|47|1 1031,0,0,0,0,0,1,0,0,0,0,0,1,0,0,1033,
scooby_state_455e34|16|1 1033,0,0,0,0,0,0,0,0,0,0,0,0,0,0,1033,
scooby_state_455cc3|25|1 1032,0,0,0,0,0,0,0,0,0,0,0,0,0,0,1032,
scooby_state_455c73|59|1 1030,0,0,0,0,0,0,0,1,1,0,0,0,0,0,1032,
scooby_state_455e34|17|1 1031,0,0,0,0,0,0,0,0,0,0,0,0,0,1,1032,
scooby_state_455cc3|5|1 1032,0,0,0,0,0,0,0,0,0,0,0,0,0,0,1032,
scooby_state_455e34|23|1 1028,1,0,0,0,1,1,0,0,0,0,1,0,0,0,1032,
scooby_state_455c73|52|1 1030,0,0,0,0,0,1,0,0,0,1,0,0,0,0,1032,
scooby_state_455cc3|51|1 1031,0,0,0,0,0,0,0,0,1,0,0,0,0,0,1032,
scooby_state_455cc3|42|1 1032,0,0,0,0,0,0,0,0,0,0,0,0,0,0,1032,
scooby_state_455c73|30|1 1029,0,1,0,0,0,0,0,0,0,0,1,0,1,0,1032,
scooby_state_455cc3|10|1 1027,1,1,0,1,1,0,0,1,0,0,0,0,0,0,1032,
scooby_state_455cc3|44|1 1032,0,0,0,0,0,0,0,0,0,0,0,0,0,0,1032,
scooby_state_455cc3|43|1 1032,0,0,0,0,0,0,0,0,0,0,0,0,0,0,1032,
scooby_state_455c73|48|1 1031,0,0,0,0,0,0,0,0,0,0,0,0,0,1,1032,
scooby_state_455cc3|31|1 1030,0,0,1,0,0,0,0,1,0,0,0,0,0,0,1032,
scooby_state_455c73|19|1 1031,0,0,0,0,1,0,0,0,0,0,0,0,0,0,1032,
scooby_state_455e34|50|1 1030,0,1,0,0,0,0,0,0,0,1,0,0,0,0,1032,
scooby_state_455c73|10|1 1032,0,0,0,0,0,0,0,0,0,0,0,0,0,0,1032,
scooby_state_455e34|39|1 1031,0,0,0,0,0,0,0,0,0,1,0,0,0,0,1032,
scooby_state_455e34|5|1 1029,0,0,0,0,0,0,2,0,0,0,1,0,0,0,1032,
scooby_state_455c73|43|1 1028,0,1,0,0,0,0,0,1,0,1,0,0,1,0,1032,
scooby_state_455c73|2|1 1029,0,0,0,0,1,0,0,0,0,0,1,0,0,1,1032,
scooby_state_455cc3|7|1 1028,1,0,1,0,0,0,2,0,0,0,0,0,0,0,1032,
scooby_state_455cc3|40|1 1031,0,0,0,0,0,0,0,0,0,0,0,0,0,1,1032,
scooby_state_455e34|10|1 1026,0,0,0,0,1,0,0,0,2,1,1,1,0,0,1032,
scooby_state_455c73|12|1 1029,0,0,0,0,1,0,0,0,0,1,0,0,1,0,1032,
scooby_state_455c73|50|1 1030,0,0,0,0,0,1,0,0,0,0,0,1,0,0,1032,
scooby_state_455e34|35|1 1031,0,0,0,0,0,0,0,0,0,0,0,1,0,0,1032,
scooby_state_455c73|39|1 1027,1,1,0,0,0,0,1,1,0,0,1,0,0,0,1032,
scooby_state_455cc3|50|1 1029,0,0,0,0,0,0,0,1,0,0,0,0,1,1,1032,
scooby_state_455c73|8|1 1031,0,0,0,0,0,0,0,1,0,0,0,0,0,0,1032,
scooby_state_455e34|51|1 1030,0,0,0,0,0,0,0,1,0,1,0,0,0,0,1032,
scooby_state_455e34|53|1 1032,0,0,0,0,0,0,0,0,0,0,0,0,0,0,1032,
scooby_state_455cc3|38|1 1029,0,1,0,1,0,0,0,0,1,0,0,0,0,0,1032,
scooby_state_455c73|57|1 1031,0,0,0,0,0,0,0,0,0,1,0,0,0,0,1032,
scooby_state_455cc3|9|1 1030,0,0,0,0,0,1,0,0,0,0,0,1,0,0,1032,
scooby_state_455cc3|57|1 1032,0,0,0,0,0,0,0,0,0,0,0,0,0,0,1032,
scooby_state_455c73|21|1 1031,0,0,0,0,1,0,0,0,0,0,0,0,0,0,1032,
scooby_state_455cc3|32|1 1032,0,0,0,0,0,0,0,0,0,0,0,0,0,0,1032,
scooby_state_455c73|26|1 1028,0,0,0,0,0,0,0,0,0,1,2,0,0,1,1032,
scooby_state_455c73|28|1 1032,0,0,0,0,0,0,0,0,0,0,0,0,0,0,1032,
scooby_state_455e34|24|1 1030,0,0,0,0,0,0,1,0,0,1,0,0,0,0,1032,
scooby_state_455c73|41|1 1032,0,0,0,0,0,0,0,0,0,0,0,0,0,0,1032,
scooby_state_455c73|17|1 1027,0,0,0,1,3,0,0,0,0,0,0,0,1,0,1032,
scooby_state_455cc3|6|1 1030,0,0,0,0,0,2,0,0,0,0,0,0,0,0,1032,
scooby_state_455c73|61|1 1031,0,0,0,0,0,0,0,0,0,0,0,0,1,0,1032,
scooby_state_455cc3|12|1 1030,0,0,1,0,0,0,0,0,1,0,0,0,0,0,1032,
scooby_state_455e34|20|1 1030,0,0,0,0,0,0,0,0,0,1,0,0,0,0,1031,
scooby_state_455e34|54|1 1028,0,0,1,0,1,0,0,0,1,0,0,0,0,0,1031,
scooby_state_455dfd|37|1 0,0,1,0,0,1,0,0,0,0,1000,0,0,1,0,1003,
scooby_state_455dfd|49|1 0,0,0,1,0,0,1,0,1,0,998,0,0,0,0,1001,
scooby_state_455dfd|61|1 0,1,0,0,0,0,0,0,0,1,997,0,1,0,1,1001,
scooby_state_455dfd|33|1 0,1,1,0,1,0,0,1,0,0,996,0,0,0,0,1000,
scooby_state_455dfd|53|1 0,0,0,1,1,1,1,0,0,0,995,0,0,0,0,999,
scooby_state_455dfd|45|1 1,0,1,0,0,1,0,0,3,0,992,0,0,1,0,999,
scooby_state_455dfd|48|1 1,0,0,1,0,0,0,2,1,0,993,0,0,0,0,998,
scooby_state_455dfd|52|1 0,1,0,0,0,0,0,0,2,1,994,0,0,0,0,998,
scooby_state_455dfd|36|1 0,0,0,0,0,1,0,1,0,0,994,0,1,0,1,998,
scooby_state_455dfd|42|1 0,0,1,0,0,1,0,0,0,0,996,0,0,0,0,998,
scooby_state_455dfd|39|1 1,0,1,1,0,0,0,1,0,1,993,0,0,0,0,998,
scooby_state_455dfd|40|1 0,0,1,0,0,1,0,1,0,0,995,0,0,0,0,998,
scooby_state_455dfd|38|1 0,0,0,1,0,1,0,1,0,0,995,0,0,0,0,998,
scooby_state_455dfd|35|1 1,0,1,0,0,1,0,1,1,0,991,0,1,0,0,997,
scooby_state_455dfd|58|1 0,0,0,0,1,0,1,0,0,1,993,1,0,0,0,997,
scooby_state_455dfd|0|0 3,0,0,0,1,0,0,0,1,1,990,1,0,0,0,997,
scooby_state_455dfd|46|1 1,0,0,2,0,1,0,0,0,1,992,0,0,0,0,997,
scooby_state_455dfd|34|1 0,0,0,0,0,0,0,1,0,0,995,0,1,0,0,997,
scooby_state_455dfd|50|1 0,1,0,1,0,0,0,0,1,0,994,0,0,0,0,997,
scooby_state_455dfd|59|1 0,1,0,0,1,0,0,0,0,1,992,0,1,0,0,996,
scooby_state_455dfd|41|1 1,0,1,0,0,1,0,1,0,0,992,0,0,0,0,996,
scooby_state_455dfd|56|1 0,1,0,0,1,0,1,0,0,2,991,0,0,0,0,996,
scooby_state_455dfd|44|1 0,0,0,1,0,1,0,0,0,0,994,0,0,0,0,996,
scooby_state_455dfd|55|1 1,1,0,0,1,0,1,0,0,0,992,0,0,0,0,996,
scooby_state_455dfd|62|1 0,0,0,0,2,0,0,2,0,1,990,0,0,0,0,995,
scooby_state_455dfd|63|1 0,0,1,0,0,0,0,2,0,1,991,0,0,0,0,995,
scooby_state_455dfd|60|1 0,0,0,0,2,0,1,0,0,0,992,0,0,0,0,995,
scooby_state_455dfd|47|1 0,0,0,0,0,1,0,0,1,1,992,0,0,0,0,995,
scooby_state_455dfd|54|1 0,1,0,0,0,0,1,0,0,1,991,0,0,0,1,995,
scooby_state_455dfd|43|1 1,0,0,0,0,1,0,0,1,0,990,1,0,0,0,994,
scooby_state_455dfd|57|1 0,1,0,1,1,0,0,0,0,1,989,0,1,0,0,994,
scooby_state_455dfd|51|1 0,0,1,1,0,0,1,0,0,0,990,0,0,0,0,993,
scooby_state_455dfd|31|1 0,0,1,0,1,1,0,1,0,0,984,0,1,0,0,989,
scooby_state_455dfd|4|1 0,1,2,0,0,1,1,0,1,0,980,0,0,0,0,986,
scooby_state_455dfd|13|1 1,0,0,1,0,1,0,0,0,0,982,0,0,0,0,985,
scooby_state_455dfd|27|1 0,0,0,0,1,0,1,0,0,1,979,0,0,0,0,982,
scooby_state_455dfd|12|1 1,0,0,0,0,1,0,0,1,0,978,0,0,0,0,981,
scooby_state_455dfd|9|1 0,0,2,0,0,1,0,0,2,0,976,0,0,0,0,981,
scooby_state_455dfd|26|1 0,1,0,0,1,0,0,1,0,2,976,0,0,0,0,981,
scooby_state_455dfd|24|1 1,2,1,0,1,0,1,0,0,0,973,0,0,0,1,980,
scooby_state_455dfd|19|1 0,1,0,1,0,0,0,0,1,0,977,0,0,0,0,980,
scooby_state_455dfd|10|1 1,1,0,1,0,0,0,1,1,0,973,1,0,0,0,979,
scooby_state_455dfd|32|1 0,0,1,0,0,0,0,1,0,1,976,0,0,0,0,979,
scooby_state_455dfd|30|1 0,0,2,0,1,0,0,1,0,1,974,0,0,0,0,979,
scooby_state_455dfd|23|1 0,1,0,0,0,0,1,0,1,1,974,1,0,0,0,979,
scooby_state_455dfd|28|1 0,1,0,0,1,0,0,0,0,1,976,0,0,0,0,979,
scooby_state_455dfd|22|1 0,1,0,2,0,0,1,0,0,1,973,0,0,0,0,978,
scooby_state_455dfd|29|1 0,0,0,0,1,0,0,1,0,0,975,1,0,0,0,978,
scooby_state_455dfd|8|1 2,1,1,0,0,0,0,1,0,0,973,0,0,0,0,978,
scooby_state_455dfd|6|1 1,0,1,0,0,0,0,0,0,0,976,0,0,0,0,978,
scooby_state_455dfd|14|1 2,1,0,1,1,1,0,0,1,0,970,0,0,0,0,977,
scooby_state_455dfd|25|1 0,0,0,0,0,0,1,1,0,1,974,0,0,0,0,977,
scooby_state_455dfd|7|1 0,0,0,0,0,1,0,1,1,0,972,0,0,0,1,976,
scooby_state_455dfd|1|1 0,0,1,1,0,2,0,1,0,2,967,0,2,0,0,976,
scooby_state_455dfd|17|1 0,1,0,1,0,0,0,0,1,1,971,0,0,1,0,976,
scooby_state_455dfd|21|1 0,1,0,0,0,0,1,0,1,0,971,0,1,0,0,975,
scooby_state_455dfd|15|1 1,0,1,1,0,0,1,0,1,0,968,1,0,1,0,975,
scooby_state_455dfd|11|1 0,0,0,2,0,1,0,0,0,0,971,0,0,0,0,974,
scooby_state_455dfd|16|1 0,0,0,0,0,0,2,0,1,0,971,0,0,0,0,974,
scooby_state_455dfd|20|1 0,0,0,1,0,0,1,0,1,0,970,0,0,0,0,973,
scooby_state_455dfd|5|1 1,0,0,0,0,1,0,1,0,0,968,0,1,0,0,972,
scooby_state_455dfd|18|1 0,0,0,1,0,0,1,0,1,0,967,0,0,0,1,971,
scooby_state_455dfd|3|1 0,0,0,0,2,0,0,1,0,1,965,0,0,2,0,971,
scooby_state_455dfd|2|1 0,0,1,0,1,0,1,0,0,2,963,0,0,0,0,968,
scooby_state_455c8d|18|0 752,0,0,0,0,0,0,0,0,0,0,0,0,0,1,753,
scooby_state_455cc3|13|0 751,0,0,1,0,0,0,0,0,0,0,0,0,0,0,752,
scooby_state_455c8d|28|0 750,0,0,0,0,0,0,0,0,1,0,0,0,1,0,752,
scooby_state_455c8d|6|0 752,0,0,0,0,0,0,0,0,0,0,0,0,0,0,752,
scooby_state_455c8d|3|0 752,0,0,0,0,0,0,0,0,0,0,0,0,0,0,752,
scooby_state_455de3|20|1 748,2,0,0,1,0,0,0,0,0,1,0,0,0,0,752,
scooby_state_455d47|27|1 752,0,0,0,0,0,0,0,0,0,0,0,0,0,0,752,
scooby_state_455e34|12|0 750,0,0,0,0,0,0,0,0,1,0,0,0,1,0,752,
scooby_state_455d75|6|0 751,1,0,0,0,0,0,0,0,0,0,0,0,0,0,752,
scooby_state_455c8d|25|0 751,0,0,0,0,0,0,0,0,1,0,0,0,0,0,752,
scooby_state_455cc3|12|0 752,0,0,0,0,0,0,0,0,0,0,0,0,0,0,752,
scooby_state_455d75|19|0 751,0,0,1,0,0,0,0,0,0,0,0,0,0,0,752,
scooby_state_455d47|61|1 751,0,0,0,0,0,1,0,0,0,0,0,0,0,0,752,
scooby_state_455c73|12|0 752,0,0,0,0,0,0,0,0,0,0,0,0,0,0,752,
scooby_state_455de3|19|0 751,0,0,0,0,0,0,0,0,0,0,0,1,0,0,752,
scooby_state_455c73|28|0 751,0,0,0,0,0,0,1,0,0,0,0,0,0,0,752,
scooby_state_455c8d|4|0 751,0,0,1,0,0,0,0,0,0,0,0,0,0,0,752,
scooby_state_455c73|21|0 752,0,0,0,0,0,0,0,0,0,0,0,0,0,0,752,
scooby_state_455c8d|29|0 752,0,0,0,0,0,0,0,0,0,0,0,0,0,0,752,
scooby_state_455e34|21|0 751,0,1,0,0,0,0,0,0,0,0,0,0,0,0,752,
scooby_state_455d75|16|0 752,0,0,0,0,0,0,0,0,0,0,0,0,0,0,752,
scooby_state_455d47|24|1 750,0,0,0,0,0,0,0,0,0,1,0,1,0,0,752,
scooby_state_455d47|14|1 751,0,0,0,0,0,0,0,0,1,0,0,0,0,0,752,
scooby_state_455d75|9|0 752,0,0,0,0,0,0,0,0,0,0,0,0,0,0,752,
scooby_state_455d47|7|1 749,0,0,0,0,0,1,0,1,0,0,1,0,0,0,752,
scooby_state_455d75|14|0 748,0,0,1,0,0,0,0,1,1,0,0,0,0,1,752,
scooby_state_455c8d|12|0 751,0,0,0,0,0,1,0,0,0,0,0,0,0,0,752,
scooby_state_455c73|30|0 750,0,1,1,0,0,0,0,0,0,0,0,0,0,0,752,
scooby_state_455d47|26|0 750,0,0,0,0,1,0,0,0,0,0,0,0,0,1,752,
scooby_state_455de3|43|1 752,0,0,0,0,0,0,0,0,0,0,0,0,0,0,752,
scooby_state_455d47|46|32 748,0,0,0,0,0,1,1,0,0,1,0,1,0,0,752,
scooby_state_455d47|44|1 750,0,0,0,0,0,0,0,0,0,0,0,1,0,1,752,
scooby_state_455c8d|9|0 752,0,0,0,0,0,0,0,0,0,0,0,0,0,0,752,
scooby_state_455e34|30|0 751,0,0,0,0,0,0,0,0,0,0,1,0,0,0,752,
scooby_state_455c73|10|0 750,0,0,0,2,0,0,0,0,0,0,0,0,0,0,752,
scooby_state_455d47|34|1 752,0,0,0,0,0,0,0,0,0,0,0,0,0,0,752,
scooby_state_455de3|30|1 752,0,0,0,0,0,0,0,0,0,0,0,0,0,0,752,
scooby_state_455de3|22|0 749,0,0,1,1,0,0,0,0,1,0,0,0,0,0,752,
scooby_state_455e34|3|0 752,0,0,0,0,0,0,0,0,0,0,0,0,0,0,752,
scooby_state_455d47|53|1 748,0,1,1,0,0,0,0,0,0,1,0,0,0,1,752,
scooby_state_455c8d|1|0 752,0,0,0,0,0,0,0,0,0,0,0,0,0,0,752,
scooby_state_455d75|21|0 748,1,0,1,0,0,0,0,1,0,0,0,0,0,1,752,
scooby_state_455c8d|23|0 751,0,0,0,0,1,0,0,0,0,0,0,0,0,0,752,
scooby_state_455c73|3|0 751,0,0,0,0,0,0,0,0,0,1,0,0,0,0,752,
scooby_state_455de3|8|0 751,0,0,0,0,0,0,0,0,0,0,0,1,0,0,752,
scooby_state_455d47|13|0 752,0,0,0,0,0,0,0,0,0,0,0,0,0,0,752,
scooby_state_455e34|18|0 750,0,0,0,1,1,0,0,0,0,0,0,0,0,0,752,
scooby_state_455cc3|17|0 751,0,0,1,0,0,0,0,0,0,0,0,0,0,0,752,
scooby_state_455c73|26|0 751,0,0,0,0,0,0,0,0,1,0,0,0,0,0,752,
scooby_state_455c73|2|0 752,0,0,0,0,0,0,0,0,0,0,0,0,0,0,752,
scooby_state_455d47|47|1 752,0,0,0,0,0,0,0,0,0,0,0,0,0,0,752,
scooby_state_455de3|10|1 750,0,0,0,0,0,0,0,0,1,0,0,1,0,0,752,
scooby_state_455e34|24|0 750,1,0,1,0,0,0,0,0,0,0,0,0,0,0,752,
scooby_state_455d47|23|0 750,0,0,1,0,1,0,0,0,0,0,0,0,0,0,752,
scooby_state_455cc3|25|0 750,0,0,0,0,0,0,0,0,0,0,1,1,0,0,752,
scooby_state_455c8d|26|0 752,0,0,0,0,0,0,0,0,0,0,0,0,0,0,752,
scooby_state_455de3|9|0 750,1,0,0,0,0,0,0,0,0,0,0,0,0,1,752,
scooby_state_455d47|54|1 751,0,0,0,0,0,0,1,0,0,0,0,0,0,0,752,
scooby_state_455e34|15|0 752,0,0,0,0,0,0,0,0,0,0,0,0,0,0,752,
scooby_state_455d75|11|0 750,0,2,0,0,0,0,0,0,0,0,0,0,0,0,752,
scooby_state_455d75|4|0 752,0,0,0,0,0,0,0,0,0,0,0,0,0,0,752,
scooby_state_455cc3|18|0 751,0,0,0,1,0,0,0,0,0,0,0,0,0,0,752,
scooby_state_455d75|27|0 747,1,1,0,0,0,0,0,0,0,1,0,0,0,2,752,
scooby_state_455de3|29|0 749,0,0,0,0,0,0,1,1,0,0,0,0,0,1,752,
scooby_state_455c73|17|0 750,0,0,0,2,0,0,0,0,0,0,0,0,0,0,752,
scooby_state_455de3|42|32 752,0,0,0,0,0,0,0,0,0,0,0,0,0,0,752,
scooby_state_455c8d|20|0 750,0,2,0,0,0,0,0,0,0,0,0,0,0,0,752,
scooby_state_455c73|19|0 751,0,0,0,0,0,0,1,0,0,0,0,0,0,0,752,
scooby_state_455e34|27|0 752,0,0,0,0,0,0,0,0,0,0,0,0,0,0,752,
scooby_state_455de3|2|0 751,0,0,0,0,0,0,0,0,1,0,0,0,0,0,752,
scooby_state_455d47|6|0 752,0,0,0,0,0,0,0,0,0,0,0,0,0,0,752,
scooby_state_455d47|51|1 751,0,0,0,0,0,0,0,0,0,0,0,0,0,1,752,
scooby_state_455de3|3|1 752,0,0,0,0,0,0,0,0,0,0,0,0,0,0,752,
scooby_state_455c73|4|0 751,0,0,0,0,0,0,1,0,0,0,0,0,0,0,752,
scooby_state_455c73|8|0 749,0,0,0,1,0,0,0,1,0,0,0,0,0,1,752,
scooby_state_455d47|17|1 750,0,1,0,1,0,0,0,0,0,0,0,0,0,0,752,
scooby_state_455de3|13|1 751,0,1,0,0,0,0,0,0,0,0,0,0,0,0,752,
scooby_state_455c8d|15|0 752,0,0,0,0,0,0,0,0,0,0,0,0,0,0,752,
scooby_state_455de3|12|0 752,0,0,0,0,0,0,0,0,0,0,0,0,0,0,752,
scooby_state_455d47|12|0 751,0,0,0,0,0,0,0,0,0,0,0,0,1,0,752,
scooby_state_455e34|6|0 752,0,0,0,0,0,0,0,0,0,0,0,0,0,0,752,
scooby_state_455d75|1|0 752,0,0,0,0,0,0,0,0,0,0,0,0,0,0,752,
scooby_state_455de3|23|1 750,0,0,0,0,0,1,0,0,0,0,0,1,0,0,752,
scooby_state_455d47|37|1 752,0,0,0,0,0,0,0,0,0,0,0,0,0,0,752,
scooby_state_455d47|16|0 751,0,0,0,0,0,0,0,0,0,0,0,0,0,1,752,
scooby_state_455de3|39|32 751,0,0,0,0,0,0,0,0,0,0,0,0,0,0,751,
scooby_state_455de3|9|1 751,0,0,0,0,0,0,0,0,0,0,0,0,0,0,751,
scooby_state_455de3|31|0 748,0,0,1,0,0,0,0,1,0,1,0,0,0,0,751,
scooby_state_455d75|22|0 750,0,0,1,0,0,0,0,0,0,0,0,0,0,0,751,
scooby_state_455de3|21|1 751,0,0,0,0,0,0,0,0,0,0,0,0,0,0,751,
scooby_state_455cc3|16|0 747,0,1,0,0,0,0,0,0,1,0,0,0,2,0,751,
scooby_state_455d47|14|0 751,0,0,0,0,0,0,0,0,0,0,0,0,0,0,751,
scooby_state_455d47|45|1 748,0,0,0,2,0,0,1,0,0,0,0,0,0,0,751,
scooby_state_455de3|26|1 749,0,0,1,0,0,0,1,0,0,0,0,0,0,0,751,
scooby_state_455de3|17|0 750,0,0,0,0,0,0,0,0,1,0,0,0,0,0,751,
scooby_state_455de3|56|32 749,0,1,0,1,0,0,0,0,0,0,0,0,0,0,751,
scooby_state_455c8d|21|0 748,0,0,0,0,0,0,1,1,0,0,0,0,0,1,751,
scooby_state_455d47|38|1 750,0,0,0,0,0,0,0,0,0,0,0,0,1,0,751,
scooby_state_455c8d|7|0 749,0,0,0,0,0,0,1,1,0,0,0,0,0,0,751,
scooby_state_455de3|50|1 748,1,0,0,0,0,0,0,0,0,0,0,0,1,1,751,
scooby_state_455d75|29|0 748,0,1,1,0,0,0,1,0,0,0,0,0,0,0,751,
scooby_state_455e34|43|32 748,1,0,1,0,1,0,0,0,0,0,0,0,0,0,751,
scooby_state_455d47|40|1 750,0,0,0,1,0,0,0,0,0,0,0,0,0,0,751,
scooby_state_455c73|1|0 751,0,0,0,0,0,0,0,0,0,0,0,0,0,0,751,
scooby_state_455de3|7|1 749,1,0,0,0,0,0,0,0,0,0,1,0,0,0,751,
scooby_state_455de3|4|0 750,0,0,0,0,0,0,0,0,0,1,0,0,0,0,751,
scooby_state_455d47|24|0 751,0,0,0,0,0,0,0,0,0,0,0,0,0,0,751,
scooby_state_455e34|20|0 749,1,0,0,0,0,0,0,0,0,1,0,0,0,0,751,
scooby_state_455de3|10|0 750,0,0,1,0,0,0,0,0,0,0,0,0,0,0,751,
scooby_state_455d47|42|1 749,0,1,0,0,0,0,0,0,0,0,0,1,0,0,751,
scooby_state_455e34|32|32 747,0,0,1,0,0,0,0,1,0,1,0,0,1,0,751,
scooby_state_455d47|10|0 749,0,0,0,0,0,0,1,0,0,0,0,0,0,1,751,
scooby_state_455d75|24|0 749,0,1,0,0,0,1,0,0,0,0,0,0,0,0,751,
scooby_state_455d47|52|1 750,0,0,1,0,0,0,0,0,0,0,0,0,0,0,751,
scooby_state_455de3|40|1 750,0,0,0,0,1,0,0,0,0,0,0,0,0,0,751,
scooby_state_455e34|14|0 751,0,0,0,0,0,0,0,0,0,0,0,0,0,0,751,
scooby_state_455d47|59|1 750,0,0,1,0,0,0,0,0,0,0,0,0,0,0,751,
scooby_state_455d75|3|0 749,0,0,0,0,0,0,1,0,0,0,0,0,1,0,751,
scooby_state_455c73|6|0 750,0,0,0,0,0,0,0,0,0,0,0,0,1,0,751,
scooby_state_455cc3|3|0 750,0,0,0,0,0,0,0,0,0,0,1,0,0,0,751,
scooby_state_455c73|22|0 749,0,0,0,0,1,0,1,0,0,0,0,0,0,0,751,
scooby_state_455e34|54|32 750,1,0,0,0,0,0,0,0,0,0,0,0,0,0,751,
scooby_state_455de3|27|1 751,0,0,0,0,0,0,0,0,0,0,0,0,0,0,751,
scooby_state_455de3|56|1 750,1,0,0,0,0,0,0,0,0,0,0,0,0,0,751,
scooby_state_455c73|24|0 750,0,0,0,0,0,0,0,0,0,0,0,0,1,0,751,
scooby_state_455d47|28|0 748,0,1,1,0,0,0,0,0,0,0,0,0,1,0,751,
scooby_state_455de3|53|1 750,0,0,0,0,1,0,0,0,0,0,0,0,0,0,751,
scooby_state_455d47|57|1 748,0,0,0,0,0,0,0,0,1,0,0,1,0,1,751,
scooby_state_455d47|29|1 750,0,0,0,0,0,0,1,0,0,0,0,0,0,0,751,
scooby_state_455de3|25|1 751,0,0,0,0,0,0,0,0,0,0,0,0,0,0,751,
scooby_state_455de3|28|1 750,0,0,0,0,0,1,0,0,0,0,0,0,0,0,751,
scooby_state_455d47|62|1 750,0,0,0,0,0,0,0,0,0,0,1,0,0,0,751,
scooby_state_455d75|28|0 749,0,1,0,1,0,0,0,0,0,0,0,0,0,0,751,
scooby_state_455d47|58|1 750,0,0,0,0,0,0,0,0,1,0,0,0,0,0,751,
scooby_state_455de3|26|0 749,1,0,0,0,0,0,0,0,0,0,1,0,0,0,751,
scooby_state_455de3|5|0 750,0,0,0,0,0,0,1,0,0,0,0,0,0,0,751,
scooby_state_455cc3|26|0 750,0,0,0,0,0,0,1,0,0,0,0,0,0,0,751,
scooby_state_455cc3|5|0 747,0,0,1,1,0,0,0,0,0,0,0,1,1,0,751,
scooby_state_455d47|32|32 749,0,0,0,0,0,1,1,0,0,0,0,0,0,0,751,
scooby_state_455d47|21|1 749,0,0,0,0,0,0,1,0,0,0,0,1,0,0,751,
scooby_state_455e34|63|32 751,0,0,0,0,0,0,0,0,0,0,0,0,0,0,751,
scooby_state_455d47|33|1 749,0,0,0,0,0,0,0,0,0,0,0,1,1,0,751,
scooby_state_455d47|18|1 750,0,0,1,0,0,0,0,0,0,0,0,0,0,0,751,
scooby_state_455de3|30|0 750,0,0,0,0,0,0,0,0,0,0,1,0,0,0,751,
scooby_state_455de3|22|1 750,0,0,0,0,0,0,0,0,1,0,0,0,0,0,751,
scooby_state_455d47|16|1 750,0,0,0,0,0,0,0,0,0,1,0,0,0,0,751,
scooby_state_455d47|53|32 749,0,0,0,1,0,0,0,0,0,0,0,1,0,0,751,
scooby_state_455de3|35|32 751,0,0,0,0,0,0,0,0,0,0,0,0,0,0,751,
scooby_state_455de3|36|1 750,0,0,0,0,0,0,0,0,0,0,1,0,0,0,751,
scooby_state_455de3|63|1 749,0,0,0,1,0,0,1,0,0,0,0,0,0,0,751,
scooby_state_455de3|28|0 751,0,0,0,0,0,0,0,0,0,0,0,0,0,0,751,
scooby_state_455de3|15|1 750,0,0,0,0,0,0,0,0,0,0,0,1,0,0,751,
scooby_state_455d47|32|1 751,0,0,0,0,0,0,0,0,0,0,0,0,0,0,751,
scooby_state_455e34|9|0 749,1,0,0,1,0,0,0,0,0,0,0,0,0,0,751,
scooby_state_455d47|5|0 751,0,0,0,0,0,0,0,0,0,0,0,0,0,0,751,
scooby_state_455c73|15|0 751,0,0,0,0,0,0,0,0,0,0,0,0,0,0,751,
scooby_state_455d75|13|0 750,0,0,1,0,0,0,0,0,0,0,0,0,0,0,751,
scooby_state_455de3|16|0 750,0,0,0,0,0,0,0,0,0,1,0,0,0,0,751,
scooby_state_455cc3|24|0 751,0,0,0,0,0,0,0,0,0,0,0,0,0,0,751,
scooby_state_455d47|31|1 750,0,0,0,0,0,1,0,0,0,0,0,0,0,0,751,
scooby_state_455cc3|27|0 750,0,0,0,0,0,0,0,1,0,0,0,0,0,0,751,
scooby_state_455d75|18|0 749,0,1,0,0,0,0,0,0,0,0,0,0,1,0,751,
scooby_state_455e34|7|0 747,0,0,0,0,0,0,0,0,2,1,0,0,1,0,751,
scooby_state_455d47|20|1 750,0,0,0,0,0,0,0,1,0,0,0,0,0,0,751,
scooby_state_455de3|17|1 750,0,0,1,0,0,0,0,0,0,0,0,0,0,0,751,
scooby_state_455d47|56|1 750,0,0,0,0,0,0,0,1,0,0,0,0,0,0,751,
scooby_state_455de3|52|32 751,0,0,0,0,0,0,0,0,0,0,0,0,0,0,751,
scooby_state_455de3|20|0 750,0,0,0,0,0,0,0,1,0,0,0,0,0,0,751,
scooby_state_455d47|25|1 748,0,0,0,1,0,0,2,0,0,0,0,0,0,0,751,
scooby_state_455d47|30|1 751,0,0,0,0,0,0,0,0,0,0,0,0,0,0,751,
scooby_state_455d47|22|0 748,0,0,0,0,1,1,0,0,0,0,0,1,0,0,751,
scooby_state_455d47|59|32 749,0,0,0,0,0,0,2,0,0,0,0,0,0,0,751,
scooby_state_455d47|13|1 750,0,0,0,0,0,0,0,0,0,0,0,1,0,0,751,
scooby_state_455cc3|9|0 750,0,0,0,0,0,0,0,0,1,0,0,0,0,0,751,
scooby_state_455d47|19|0 749,0,1,1,0,0,0,0,0,0,0,0,0,0,0,751,
scooby_state_455de3|25|0 750,0,1,0,0,0,0,0,0,0,0,0,0,0,0,751,
scooby_state_455de3|14|1 750,0,1,0,0,0,0,0,0,0,0,0,0,0,0,751,
scooby_state_455d47|50|32 750,0,0,1,0,0,0,0,0,0,0,0,0,0,0,751,
scooby_state_455cc3|10|0 748,0,0,1,0,0,0,0,2,0,0,0,0,0,0,751,
scooby_state_455d47|2|0 750,0,0,0,1,0,0,0,0,0,0,0,0,0,0,751,
scooby_state_455e34|62|32 751,0,0,0,0,0,0,0,0,0,0,0,0,0,0,751,
scooby_state_455d47|46|1 748,0,0,0,0,3,0,0,0,0,0,0,0,0,0,751,
scooby_state_455de3|19|1 750,0,0,0,0,0,0,0,0,0,0,0,1,0,0,751,
scooby_state_455e34|44|32 751,0,0,0,0,0,0,0,0,0,0,0,0,0,0,751,
scooby_state_455d47|25|0 750,0,0,0,0,0,1,0,0,0,0,0,0,0,0,751,
scooby_state_455d47|18|0 750,0,0,0,0,0,0,0,0,1,0,0,0,0,0,751,
scooby_state_455d47|27|0 748,0,0,0,0,0,0,1,0,0,0,0,1,0,1,751,
scooby_state_455de3|60|1 748,1,0,0,0,0,0,0,1,0,0,0,0,0,1,751,
scooby_state_455e34|26|0 748,0,0,0,1,1,0,0,0,0,0,0,1,0,0,751,
scooby_state_455d75|7|0 750,0,0,0,0,0,0,0,0,0,0,0,0,0,1,751,
scooby_state_455de3|11|0 749,0,1,0,0,0,0,0,0,0,1,0,0,0,0,751,
scooby_state_455cc3|20|0 749,0,0,0,0,0,1,0,0,0,0,0,0,1,0,751,
scooby_state_455d47|1|0 750,0,0,0,0,0,0,0,0,1,0,0,0,0,0,751,
scooby_state_455cc3|19|0 750,0,0,0,0,1,0,0,0,0,0,0,0,0,0,751,
scooby_state_455d47|5|1 748,0,0,0,0,0,1,0,1,0,0,1,0,0,0,751,
scooby_state_455cc3|2|0 749,0,0,0,0,0,1,0,0,0,0,0,0,1,0,751,
scooby_state_455d47|11|1 749,0,1,0,0,1,0,0,0,0,0,0,0,0,0,751,
scooby_state_455d47|3|1 748,1,0,0,0,0,1,0,0,0,1,0,0,0,0,751,
scooby_state_455de3|45|32 749,0,0,0,0,0,0,1,0,0,0,0,1,0,0,751,
scooby_state_455d75|30|0 751,0,0,0,0,0,0,0,0,0,0,0,0,0,0,751,
scooby_state_455de3|46|1 751,0,0,0,0,0,0,0,0,0,0,0,0,0,0,751,
scooby_state_455e34|23|0 751,0,0,0,0,0,0,0,0,0,0,0,0,0,0,751,
scooby_state_455d47|29|0 751,0,0,0,0,0,0,0,0,0,0,0,0,0,0,751,
scooby_state_455d47|33|32 748,0,0,0,2,0,0,0,0,0,0,0,0,1,0,751,
scooby_state_455d47|30|0 749,0,0,0,0,0,1,1,0,0,0,0,0,0,0,751,
scooby_state_455e34|58|32 751,0,0,0,0,0,0,0,0,0,0,0,0,0,0,751,
scooby_state_455de3|14|0 749,0,0,0,0,1,0,0,0,0,0,0,0,1,0,751,
scooby_state_455de3|11|1 751,0,0,0,0,0,0,0,0,0,0,0,0,0,0,751,
scooby_state_455e34|10|0 750,0,0,0,1,0,0,0,0,0,0,0,0,0,0,751,
scooby_state_455de3|18|0 751,0,0,0,0,0,0,0,0,0,0,0,0,0,0,751,
scooby_state_455de3|2|1 749,1,0,0,0,0,0,0,0,0,0,0,0,0,1,751,
scooby_state_455de3|32|1 751,0,0,0,0,0,0,0,0,0,0,0,0,0,0,751,
scooby_state_455cc3|11|0 750,0,0,0,1,0,0,0,0,0,0,0,0,0,0,751,
scooby_state_455de3|24|0 749,0,0,0,0,0,1,0,0,0,0,0,0,1,0,751,
scooby_state_455d47|39|32 750,0,0,0,0,0,0,0,0,0,0,0,1,0,0,751,
scooby_state_455de3|18|1 751,0,0,0,0,0,0,0,0,0,0,0,0,0,0,751,
scooby_state_455de3|33|1 750,0,0,1,0,0,0,0,0,0,0,0,0,0,0,751,
scooby_state_455de3|12|1 750,0,0,0,0,0,0,0,0,0,0,0,0,1,0,751,
scooby_state_455d47|6|1 751,0,0,0,0,0,0,0,0,0,0,0,0,0,0,751,
scooby_state_455c73|23|0 750,0,0,0,0,0,0,0,0,0,0,0,1,0,0,751,
scooby_state_455cc3|15|0 749,0,0,0,1,0,0,0,0,0,0,0,1,0,0,751,
scooby_state_455e34|2|0 748,1,0,0,0,1,0,0,0,1,0,0,0,0,0,751,
scooby_state_455d47|49|32 750,0,0,0,1,0,0,0,0,0,0,0,0,0,0,751,
scooby_state_455cc3|22|0 748,2,0,0,0,0,0,0,0,0,1,0,0,0,0,751,
scooby_state_455de3|13|0 751,0,0,0,0,0,0,0,0,0,0,0,0,0,0,751,
scooby_state_455de3|16|1 749,0,0,0,0,0,0,0,0,0,1,0,0,0,1,751,
scooby_state_455c8d|11|0 750,0,0,0,1,0,0,0,0,0,0,0,0,0,0,751,
scooby_state_455d75|8|0 751,0,0,0,0,0,0,0,0,0,0,0,0,0,0,751,
scooby_state_455d47|1|1 750,0,0,0,1,0,0,0,0,0,0,0,0,0,0,751,
scooby_state_455de3|49|32 749,0,0,0,0,0,0,0,0,0,1,0,0,0,1,751,
scooby_state_455de3|6|0 750,0,0,0,0,0,0,0,0,0,0,0,0,0,1,751,
scooby_state_455de3|62|32 749,0,0,0,0,1,0,0,0,0,0,0,0,1,0,751,
scooby_state_455d75|26|0 749,0,0,0,0,0,0,0,0,0,0,1,1,0,0,751,
scooby_state_455cc3|4|0 748,1,0,0,0,1,0,0,0,0,1,0,0,0,0,751,
scooby_state_455c73|13|0 749,0,0,1,0,1,0,0,0,0,0,0,0,0,0,751,
scooby_state_455d47|36|1 750,0,0,0,0,1,0,0,0,0,0,0,0,0,0,751,
scooby_state_455d47|48|1 751,0,0,0,0,0,0,0,0,0,0,0,0,0,0,751,
scooby_state_455e34|35|32 750,0,0,0,0,0,1,0,0,0,0,0,0,0,0,751,
scooby_state_455d47|22|1 750,0,0,0,0,0,0,0,0,0,0,1,0,0,0,751,
scooby_state_455d47|9|1 750,1,0,0,0,0,0,0,0,0,0,0,0,0,0,751,
scooby_state_455d47|50|1 750,0,0,0,0,0,1,0,0,0,0,0,0,0,0,751,
scooby_state_455e34|39|32 751,0,0,0,0,0,0,0,0,0,0,0,0,0,0,751,
scooby_state_455d47|15|1 749,0,0,0,0,2,0,0,0,0,0,0,0,0,0,751,
scooby_state_455e34|1|0 751,0,0,0,0,0,0,0,0,0,0,0,0,0,0,751,
scooby_state_455de3|29|1 748,0,0,0,0,1,0,0,1,0,0,0,0,1,0,751,
scooby_state_455de3|1|1 746,0,2,0,0,0,0,0,0,0,0,1,2,0,0,751,
scooby_state_455d47|8|0 748,0,0,0,1,1,0,0,0,0,0,0,1,0,0,751,
scooby_state_455e34|5|0 750,1,0,0,0,0,0,0,0,0,0,0,0,0,0,751,
scooby_state_455d47|4|0 749,0,0,0,0,0,0,0,0,1,0,1,0,0,0,751,
scooby_state_455cc3|7|0 749,0,0,0,0,0,0,0,1,0,0,0,1,0,0,751,
scooby_state_455d47|19|1 749,0,0,0,1,0,0,0,1,0,0,0,0,0,0,751,
scooby_state_455d47|49|1 751,0,0,0,0,0,0,0,0,0,0,0,0,0,0,751,
scooby_state_455d47|63|32 750,0,0,0,0,0,0,0,0,0,0,0,1,0,0,751,
scooby_state_455d47|17|0 750,1,0,0,0,0,0,0,0,0,0,0,0,0,0,751,
scooby_state_455d47|60|1 749,0,0,0,1,0,1,0,0,0,0,0,0,0,0,751,
scooby_state_455de3|31|1 748,0,2,0,0,0,0,0,0,0,0,1,0,0,0,751,
scooby_state_455de3|5|1 750,0,0,0,0,0,0,0,0,0,1,0,0,0,0,751,
scooby_state_455e34|41|32 748,0,0,0,0,1,1,1,0,0,0,0,0,0,0,751,
scooby_state_455e34|29|0 750,0,0,0,0,0,0,0,0,0,0,1,0,0,0,751,
scooby_state_455d47|23|1 751,0,0,0,0,0,0,0,0,0,0,0,0,0,0,751,
scooby_state_455d47|60|32 748,0,0,0,1,0,0,0,0,0,1,0,0,1,0,751,
scooby_state_455d47|43|32 748,0,0,0,1,0,0,0,0,0,0,0,1,1,0,751,
scooby_state_455cc3|29|0 751,0,0,0,0,0,0,0,0,0,0,0,0,0,0,751,
scooby_state_455d47|26|1 750,0,0,0,0,0,0,0,0,0,1,0,0,0,0,751,
scooby_state_455d47|56|32 749,0,0,0,0,0,0,0,0,0,0,0,1,0,1,751,
scooby_state_455d47|2|1 751,0,0,0,0,0,0,0,0,0,0,0,0,0,0,751,
scooby_state_455c73|5|0 750,0,1,0,0,0,0,0,0,0,0,0,0,0,0,751,
scooby_state_455de3|24|1 750,0,0,0,0,0,0,0,0,0,0,0,0,1,0,751,
scooby_state_455de3|59|32 748,0,0,0,0,0,1,0,0,0,1,0,0,0,1,751,
scooby_state_455de3|47|1 751,0,0,0,0,0,0,0,0,0,0,0,0,0,0,751,
scooby_state_455de3|46|32 750,0,0,0,0,0,0,0,0,0,0,0,1,0,0,751,
scooby_state_455de3|15|0 751,0,0,0,0,0,0,0,0,0,0,0,0,0,0,751,
scooby_state_455d47|21|0 750,0,0,1,0,0,0,0,0,0,0,0,0,0,0,751,
scooby_state_455d47|55|1 750,0,0,0,0,0,0,0,0,0,0,0,0,0,1,751,
scooby_state_455de3|23|0 751,0,0,0,0,0,0,0,0,0,0,0,0,0,0,751,
scooby_state_455de3|55|32 750,0,0,0,0,0,0,0,0,1,0,0,0,0,0,751,
scooby_state_455d47|9|0 750,0,1,0,0,0,0,0,0,0,0,0,0,0,0,751,
scooby_state_455e34|17|0 751,0,0,0,0,0,0,0,0,0,0,0,0,0,0,751,
scooby_state_455d75|23|0 750,0,0,0,0,0,1,0,0,0,0,0,0,0,0,751,
scooby_state_455e34|28|0 749,0,0,0,0,1,1,0,0,0,0,0,0,0,0,751,
scooby_state_455cc3|28|0 748,0,0,0,0,1,0,1,0,0,0,0,0,1,0,751,
scooby_state_455e34|48|32 751,0,0,0,0,0,0,0,0,0,0,0,0,0,0,751,
scooby_state_455de3|6|1 748,1,0,0,0,0,0,0,0,0,1,0,0,0,1,751,
scooby_state_455d75|12|0 750,0,0,0,1,0,0,0,0,0,0,0,0,0,0,751,
scooby_state_455d47|63|1 750,0,0,0,0,0,0,0,0,1,0,0,0,0,0,751,
scooby_state_455e34|11|0 751,0,0,0,0,0,0,0,0,0,0,0,0,0,0,751,
scooby_state_455e34|45|32 748,0,0,1,1,0,0,0,0,0,0,0,0,1,0,751,
scooby_state_455de3|21|0 749,0,0,0,0,0,0,1,0,0,0,0,0,1,0,751,
scooby_state_455d47|31|0 751,0,0,0,0,0,0,0,0,0,0,0,0,0,0,751,
scooby_state_455e34|50|32 749,0,0,1,0,1,0,0,0,0,0,0,0,0,0,751,
scooby_state_455e34|25|0 750,0,0,1,0,0,0,0,0,0,0,0,0,0,0,751,
scooby_state_455e34|61|32 748,1,0,0,0,0,0,0,1,0,0,0,1,0,0,751,
scooby_state_455de3|27|0 749,0,2,0,0,0,0,0,0,0,0,0,0,0,0,751,
scooby_state_455e34|36|32 751,0,0,0,0,0,0,0,0,0,0,0,0,0,0,751,
scooby_state_455e34|8|0 748,1,0,1,0,0,1,0,0,0,0,0,0,0,0,751,
scooby_state_455e34|16|0 746,0,1,0,0,0,1,1,0,0,1,0,0,1,0,751,
scooby_state_455de3|57|1 751,0,0,0,0,0,0,0,0,0,0,0,0,0,0,751,
scooby_state_455d47|28|1 750,0,1,0,0,0,0,0,0,0,0,0,0,0,0,751,
scooby_state_455e34|59|32 749,0,1,0,0,0,0,1,0,0,0,0,0,0,0,751,
scooby_state_455cc3|30|0 751,0,0,0,0,0,0,0,0,0,0,0,0,0,0,751,
scooby_state_455c8d|14|0 750,0,0,0,0,0,0,0,0,1,0,0,0,0,0,751,
scooby_state_455c8d|17|0 751,0,0,0,0,0,0,0,0,0,0,0,0,0,0,751,
scooby_state_455e34|31|0 751,0,0,0,0,0,0,0,0,0,0,0,0,0,0,751,
scooby_state_455c73|25|0 751,0,0,0,0,0,0,0,0,0,0,0,0,0,0,751,
scooby_state_455d75|2|0 749,0,1,1,0,0,0,0,0,0,0,0,0,0,0,751,
scooby_state_455cc3|6|0 750,0,0,0,0,0,0,0,0,0,1,0,0,0,0,751,
scooby_state_455d47|35|1 750,0,0,0,0,0,0,0,1,0,0,0,0,0,0,751,
scooby_state_455d75|17|0 751,0,0,0,0,0,0,0,0,0,0,0,0,0,0,751,
scooby_state_455c73|16|0 749,1,0,0,1,0,0,0,0,0,0,0,0,0,0,751,
scooby_state_455cc3|23|0 750,0,0,0,0,0,1,0,0,0,0,0,0,0,0,751,
scooby_state_455cc3|21|0 750,0,0,0,0,0,0,1,0,0,0,0,0,0,0,751,
scooby_state_455c8d|8|0 747,0,0,0,0,0,0,0,1,1,0,1,0,0,1,751,
scooby_state_455e34|13|0 749,1,0,0,0,0,0,0,0,0,0,1,0,0,0,751,
scooby_state_455e34|47|32 750,0,0,0,0,0,0,0,0,0,0,0,1,0,0,751,
scooby_state_455c73|14|0 751,0,0,0,0,0,0,0,0,0,0,0,0,0,0,751,
scooby_state_455de3|32|32 747,1,0,0,1,0,0,0,0,0,0,2,0,0,0,751,
scooby_state_455d47|36|32 751,0,0,0,0,0,0,0,0,0,0,0,0,0,0,751,
scooby_state_455de3|1|0 750,0,0,0,1,0,0,0,0,0,0,0,0,0,0,751,
scooby_state_455d47|20|0 750,0,0,0,0,0,0,0,0,1,0,0,0,0,0,751,
scooby_state_455d47|4|1 750,0,0,0,0,0,0,0,0,0,0,1,0,0,0,751,
scooby_state_455d47|39|1 750,0,0,0,0,1,0,0,0,0,0,0,0,0,0,751,
scooby_state_455d47|3|0 750,0,0,1,0,0,0,0,0,0,0,0,0,0,0,751,
scooby_state_455d47|7|0 751,0,0,0,0,0,0,0,0,0,0,0,0,0,0,751,
scooby_state_455de3|3|0 747,0,0,0,0,1,1,1,0,0,0,1,0,0,0,751,
scooby_state_455cc3|14|0 750,0,0,1,0,0,0,0,0,0,0,0,0,0,0,751,
scooby_state_455c73|7|0 751,0,0,0,0,0,0,0,0,0,0,0,0,0,0,751,
scooby_state_455d47|10|1 749,0,0,1,0,0,0,0,0,0,0,0,1,0,0,751,
scooby_state_455c8d|22|0 751,0,0,0,0,0,0,0,0,0,0,0,0,0,0,751,
scooby_state_455d47|15|0 751,0,0,0,0,0,0,0,0,0,0,0,0,0,0,751,
scooby_state_455cc3|1|0 751,0,0,0,0,0,0,0,0,0,0,0,0,0,0,751,
scooby_state_455e34|46|32 747,0,0,0,0,1,1,0,0,0,0,0,0,1,0,750,
[...]
scooby_state_455d24|29|-33 1,0,0,0,0,0,0,0,0,0,0,0,0,0,0,1,
scooby_state_455d24|61|1 1,0,0,0,0,0,0,0,0,0,0,0,0,0,0,1,
scooby_state_455e78|10|9 1,0,0,0,0,0,0,0,0,0,0,0,0,0,0,1,
scooby_state_455de3|53|33 1,0,0,0,0,0,0,0,0,0,0,0,0,0,0,1,
scooby_state_455d39|26|0 1,0,0,0,0,0,0,0,0,0,0,0,0,0,0,1,
scooby_state_455d39|42|1 1,0,0,0,0,0,0,0,0,0,0,0,0,0,0,1,
scooby_state_455c87|63|32 1,0,0,0,0,0,0,0,0,0,0,0,0,0,0,1,
scooby_state_455e34|36|0 1,0,0,0,0,0,0,0,0,0,0,0,0,0,0,1,
scooby_state_455c87|60|31 1,0,0,0,0,0,0,0,0,0,0,0,0,0,0,1,
scooby_state_455987|38|1 1,0,0,0,0,0,0,0,0,0,0,0,0,0,0,1,
scooby_state_455c87|21|0 1,0,0,0,0,0,0,0,0,0,0,0,0,0,0,1,
scooby_state_455e34|56|0 1,0,0,0,0,0,0,0,0,0,0,0,0,0,0,1,
scooby_state_455d47|40|0 1,0,0,0,0,0,0,0,0,0,0,0,0,0,0,1,
scooby_state_455d24|22|1 1,0,0,0,0,0,0,0,0,0,0,0,0,0,0,1,
scooby_state_455945|37|1 1,0,0,0,0,0,0,0,0,0,0,0,0,0,0,1,
scooby_state_455de3|42|33 1,0,0,0,0,0,0,0,0,0,0,0,0,0,0,1,
scooby_state_455e63|11|5 0,1,0,0,0,0,0,0,0,0,0,0,0,0,0,1,
scooby_state_455cbe|5|-58 1,0,0,0,0,0,0,0,0,0,0,0,0,0,0,1,
scooby_state_455d47|51|0 1,0,0,0,0,0,0,0,0,0,0,0,0,0,0,1,
scooby_state_455d39|34|1 1,0,0,0,0,0,0,0,0,0,0,0,0,0,0,1,
scooby_state_455de3|46|33 1,0,0,0,0,0,0,0,0,0,0,0,0,0,0,1,
scooby_state_455c8d|57|33 1,0,0,0,0,0,0,0,0,0,0,0,0,0,0,1,
scooby_state_455e34|58|0 1,0,0,0,0,0,0,0,0,0,0,0,0,0,0,1,
scooby_state_455d39|55|1 1,0,0,0,0,0,0,0,0,0,0,0,0,0,0,1,
scooby_state_455d39|44|32 1,0,0,0,0,0,0,0,0,0,0,0,0,0,0,1,
scooby_state_455d47|37|0 1,0,0,0,0,0,0,0,0,0,0,0,0,0,0,1,
scooby_state_455e34|51|0 1,0,0,0,0,0,0,0,0,0,0,0,0,0,0,1,
scooby_state_455d39|11|-32 1,0,0,0,0,0,0,0,0,0,0,0,0,0,0,1,
scooby_state_455e63|16|10 1,0,0,0,0,0,0,0,0,0,0,0,0,0,0,1,
scooby_state_455d39|1|-32 1,0,0,0,0,0,0,0,0,0,0,0,0,0,0,1,
scooby_state_455cc3|55|0 1,0,0,0,0,0,0,0,0,0,0,0,0,0,0,1,
scooby_state_455cc3|34|0 1,0,0,0,0,0,0,0,0,0,0,0,0,0,0,1,
scooby_state_455921|46|-1 0,1,0,0,0,0,0,0,0,0,0,0,0,0,0,1,
scooby_state_455d39|17|-32 1,0,0,0,0,0,0,0,0,0,0,0,0,0,0,1,
scooby_state_455c8d|33|0 1,0,0,0,0,0,0,0,0,0,0,0,0,0,0,1,
scooby_state_455d39|53|1 0,1,0,0,0,0,0,0,0,0,0,0,0,0,0,1,
scooby_state_455d24|14|1 1,0,0,0,0,0,0,0,0,0,0,0,0,0,0,1,
scooby_state_455d47|35|0 1,0,0,0,0,0,0,0,0,0,0,0,0,0,0,1,
scooby_state_455d39|62|32 1,0,0,0,0,0,0,0,0,0,0,0,0,0,0,1,
scooby_state_455cc3|36|0 1,0,0,0,0,0,0,0,0,0,0,0,0,0,0,1,
scooby_state_455d24|57|1 1,0,0,0,0,0,0,0,0,0,0,0,0,0,0,1,
scooby_state_455d87|54|1 1,0,0,0,0,0,0,0,0,0,0,0,0,0,0,1,
scooby_state_455d39|56|1 1,0,0,0,0,0,0,0,0,0,0,0,0,0,0,1,
scooby_state_455c87|61|32 1,0,0,0,0,0,0,0,0,0,0,0,0,0,0,1,
scooby_state_455afc|51|1 1,0,0,0,0,0,0,0,0,0,0,0,0,0,0,1,
scooby_state_455d39|45|32 1,0,0,0,0,0,0,0,0,0,0,0,0,0,0,1,
scooby_state_455d4d|8|-1 1,0,0,0,0,0,0,0,0,0,0,0,0,0,0,1,
scooby_state_455d39|63|1 1,0,0,0,0,0,0,0,0,0,0,0,0,0,0,1,
scooby_state_455e34|57|0 1,0,0,0,0,0,0,0,0,0,0,0,0,0,0,1,
scooby_state_455d39|16|0 1,0,0,0,0,0,0,0,0,0,0,0,0,0,0,1,
scooby_state_455d39|52|32 1,0,0,0,0,0,0,0,0,0,0,0,0,0,0,1,
scooby_state_455cc3|41|0 1,0,0,0,0,0,0,0,0,0,0,0,0,0,0,1,
scooby_state_455e78|7|6 1,0,0,0,0,0,0,0,0,0,0,0,0,0,0,1,
scooby_state_455cc3|32|0 1,0,0,0,0,0,0,0,0,0,0,0,0,0,0,1,
scooby_state_455d39|21|-32 1,0,0,0,0,0,0,0,0,0,0,0,0,0,0,1,
scooby_state_455e63|15|9 1,0,0,0,0,0,0,0,0,0,0,0,0,0,0,1,
scooby_state_455d39|8|-32 1,0,0,0,0,0,0,0,0,0,0,0,0,0,0,1,
scooby_state_455d39|63|32 1,0,0,0,0,0,0,0,0,0,0,0,0,0,0,1,
scooby_state_455cbe|3|-60 1,0,0,0,0,0,0,0,0,0,0,0,0,0,0,1,
scooby_state_455d39|49|1 1,0,0,0,0,0,0,0,0,0,0,0,0,0,0,1,
scooby_state_455d24|8|1 1,0,0,0,0,0,0,0,0,0,0,0,0,0,0,1,
scooby_state_455e2e|3|0 1,0,0,0,0,0,0,0,0,0,0,0,0,0,0,1,
scooby_state_455cbe|1|-30 1,0,0,0,0,0,0,0,0,0,0,0,0,0,0,1,
scooby_state_455d47|38|0 1,0,0,0,0,0,0,0,0,0,0,0,0,0,0,1,
scooby_state_455d87|31|0 1,0,0,0,0,0,0,0,0,0,0,0,0,0,0,1,
scooby_state_455cf9|39|29 1,0,0,0,0,0,0,0,0,0,0,0,0,0,0,1,
scooby_state_455d47|36|0 1,0,0,0,0,0,0,0,0,0,0,0,0,0,0,1,
scooby_state_455de3|45|33 1,0,0,0,0,0,0,0,0,0,0,0,0,0,0,1,
scooby_state_455d6f|35|29 1,0,0,0,0,0,0,0,0,0,0,0,0,0,0,1,
scooby_state_455d39|52|1 1,0,0,0,0,0,0,0,0,0,0,0,0,0,0,1,
scooby_state_455e4e|63|0 1,0,0,0,0,0,0,0,0,0,0,0,0,0,0,1,
scooby_state_455d39|17|0 1,0,0,0,0,0,0,0,0,0,0,0,0,0,0,1,
scooby_state_455d39|31|0 1,0,0,0,0,0,0,0,0,0,0,0,0,0,0,1,
scooby_state_455d39|9|-32 1,0,0,0,0,0,0,0,0,0,0,0,0,0,0,1,
scooby_state_455d07|44|0 1,0,0,0,0,0,0,0,0,0,0,0,0,0,0,1,
scooby_state_455d39|39|0 1,0,0,0,0,0,0,0,0,0,0,0,0,0,0,1,
scooby_state_455d39|28|0 1,0,0,0,0,0,0,0,0,0,0,0,0,0,0,1,
scooby_state_455cbe|2|-61 1,0,0,0,0,0,0,0,0,0,0,0,0,0,0,1,
scooby_state_455d39|58|32 1,0,0,0,0,0,0,0,0,0,0,0,0,0,0,1,
scooby_state_455d47|33|0 1,0,0,0,0,0,0,0,0,0,0,0,0,0,0,1,
scooby_state_455e68|58|1 1,0,0,0,0,0,0,0,0,0,0,0,0,0,0,1,
scooby_state_455b42|45|1 1,0,0,0,0,0,0,0,0,0,0,0,0,0,0,1,
scooby_state_455880|34|-26 1,0,0,0,0,0,0,0,0,0,0,0,0,0,0,1,
scooby_state_455d39|26|-32 1,0,0,0,0,0,0,0,0,0,0,0,0,0,0,1,
scooby_state_455cde|2|0 1,0,0,0,0,0,0,0,0,0,0,0,0,0,0,1,
scooby_state_455d39|16|-32 1,0,0,0,0,0,0,0,0,0,0,0,0,0,0,1,
scooby_state_455d39|61|1 1,0,0,0,0,0,0,0,0,0,0,0,0,0,0,1,
scooby_state_455c87|11|0 1,0,0,0,0,0,0,0,0,0,0,0,0,0,0,1,
scooby_state_455c06|48|1 1,0,0,0,0,0,0,0,0,0,0,0,0,0,0,1,
scooby_state_455cc3|53|0 1,0,0,0,0,0,0,0,0,0,0,0,0,0,0,1,
scooby_state_4559c7|39|1 1,0,0,0,0,0,0,0,0,0,0,0,0,0,0,1,
scooby_state_455e63|17|11 1,0,0,0,0,0,0,0,0,0,0,0,0,0,0,1,
scooby_state_455d47|52|0 1,0,0,0,0,0,0,0,0,0,0,0,0,0,0,1,
scooby_state_4558c0|35|1 1,0,0,0,0,0,0,0,0,0,0,0,0,0,0,1,
scooby_state_455de3|43|33 1,0,0,0,0,0,0,0,0,0,0,0,0,0,0,1,
scooby_state_455cde|1|0 1,0,0,0,0,0,0,0,0,0,0,0,0,0,0,1,
scooby_state_455d39|37|32 1,0,0,0,0,0,0,0,0,0,0,0,0,0,0,1,
scooby_state_455d24|18|-33 1,0,0,0,0,0,0,0,0,0,0,0,0,0,0,1,
scooby_state_455d39|4|0 1,0,0,0,0,0,0,0,0,0,0,0,0,0,0,1,
scooby_state_455cde|60|0 1,0,0,0,0,0,0,0,0,0,0,0,0,0,0,1,
scooby_state_455cc3|44|0 1,0,0,0,0,0,0,0,0,0,0,0,0,0,0,1,
scooby_state_455d39|46|1 1,0,0,0,0,0,0,0,0,0,0,0,0,0,0,1,
scooby_state_455c87|36|32 1,0,0,0,0,0,0,0,0,0,0,0,0,0,0,1,
scooby_state_455d24|25|-33 1,0,0,0,0,0,0,0,0,0,0,0,0,0,0,1,
scooby_state_455e34|46|0 1,0,0,0,0,0,0,0,0,0,0,0,0,0,0,1,
scooby_state_455d39|24|-32 1,0,0,0,0,0,0,0,0,0,0,0,0,0,0,1,
scooby_state_455d39|36|1 1,0,0,0,0,0,0,0,0,0,0,0,0,0,0,1,
scooby_state_455d87|30|29 1,0,0,0,0,0,0,0,0,0,0,0,0,0,0,1,
scooby_state_455d39|8|0 1,0,0,0,0,0,0,0,0,0,0,0,0,0,0,1,
scooby_state_455d39|55|32 1,0,0,0,0,0,0,0,0,0,0,0,0,0,0,1,
scooby_state_455d47|47|0 1,0,0,0,0,0,0,0,0,0,0,0,0,0,0,1,
scooby_state_455cc3|49|0 1,0,0,0,0,0,0,0,0,0,0,0,0,0,0,1,
scooby_state_455d47|48|0 1,0,0,0,0,0,0,0,0,0,0,0,0,0,0,1,
scooby_state_455cc3|42|0 1,0,0,0,0,0,0,0,0,0,0,0,0,0,0,1,
scooby_state_455d39|50|32 1,0,0,0,0,0,0,0,0,0,0,0,0,0,0,1,
scooby_state_455d47|45|0 1,0,0,0,0,0,0,0,0,0,0,0,0,0,0,1,
scooby_state_455c60|8|0 1,0,0,0,0,0,0,0,0,0,0,0,0,0,0,1,
scooby_state_455e81|58|1 1,0,0,0,0,0,0,0,0,0,0,0,0,0,0,1,
scooby_state_455cde|0|0 1,0,0,0,0,0,0,0,0,0,0,0,0,0,0,1,
scooby_state_455b3a|54|3 1,0,0,0,0,0,0,0,0,0,0,0,0,0,0,1,
scooby_state_455d24|6|-33 1,0,0,0,0,0,0,0,0,0,0,0,0,0,0,1,
scooby_state_455cc3|39|0 1,0,0,0,0,0,0,0,0,0,0,0,0,0,0,1,
scooby_state_455de3|36|33 1,0,0,0,0,0,0,0,0,0,0,0,0,0,0,1,
scooby_state_455e34|34|0 1,0,0,0,0,0,0,0,0,0,0,0,0,0,0,1,
scooby_state_455d39|27|0 1,0,0,0,0,0,0,0,0,0,0,0,0,0,0,1,
scooby_state_455f05|60|0 1,0,0,0,0,0,0,0,0,0,0,0,0,0,0,1,
scooby_state_455de3|55|33 1,0,0,0,0,0,0,0,0,0,0,0,0,0,0,1,
scooby_state_455c87|7|0 1,0,0,0,0,0,0,0,0,0,0,0,0,0,0,1,
scooby_state_455d8d|57|1 1,0,0,0,0,0,0,0,0,0,0,0,0,0,0,1,
scooby_state_455ae2|0|-60 1,0,0,0,0,0,0,0,0,0,0,0,0,0,0,1,
scooby_state_455cc3|52|0 1,0,0,0,0,0,0,0,0,0,0,0,0,0,0,1,
scooby_state_455c87|38|32 1,0,0,0,0,0,0,0,0,0,0,0,0,0,0,1,
scooby_state_455c8d|54|34 1,0,0,0,0,0,0,0,0,0,0,0,0,0,0,1,
scooby_state_455d39|29|-32 1,0,0,0,0,0,0,0,0,0,0,0,0,0,0,1,
scooby_state_455e63|10|-31 1,0,0,0,0,0,0,0,0,0,0,0,0,0,0,1,
scooby_state_455e63|12|6 1,0,0,0,0,0,0,0,0,0,0,0,0,0,0,1,
scooby_state_455d39|62|1 1,0,0,0,0,0,0,0,0,0,0,0,0,0,0,1,
scooby_state_455d39|30|0 1,0,0,0,0,0,0,0,0,0,0,0,0,0,0,1,
scooby_state_455d39|36|32 1,0,0,0,0,0,0,0,0,0,0,0,0,0,0,1,
scooby_state_455e34|48|0 1,0,0,0,0,0,0,0,0,0,0,0,0,0,0,1,
scooby_state_455d39|1|0 1,0,0,0,0,0,0,0,0,0,0,0,0,0,0,1,
scooby_state_455e78|8|7 0,0,0,0,0,0,0,0,0,0,1,0,0,0,0,1,
scooby_state_455d39|38|1 1,0,0,0,0,0,0,0,0,0,0,0,0,0,0,1,
scooby_state_455de3|62|33 1,0,0,0,0,0,0,0,0,0,0,0,0,0,0,1,
scooby_state_455d39|33|32 1,0,0,0,0,0,0,0,0,0,0,0,0,0,0,1,
scooby_state_455d6f|36|0 1,0,0,0,0,0,0,0,0,0,0,0,0,0,0,1,
scooby_state_455b86|46|1 1,0,0,0,0,0,0,0,0,0,0,0,0,0,0,1,
scooby_state_455dd1|7|0 1,0,0,0,0,0,0,0,0,0,0,0,0,0,0,1,
scooby_state_455b04|44|1 1,0,0,0,0,0,0,0,0,0,0,0,0,0,0,1,
scooby_state_455db2|8|0 1,0,0,0,0,0,0,0,0,0,0,0,0,0,0,1,
scooby_state_455d24|33|1 1,0,0,0,0,0,0,0,0,0,0,0,0,0,0,1,
scooby_state_455d39|38|32 1,0,0,0,0,0,0,0,0,0,0,0,0,0,0,1,
scooby_state_455e34|39|0 0,0,0,0,0,0,0,0,0,0,1,0,0,0,0,1,
scooby_state_455cc3|63|0 1,0,0,0,0,0,0,0,0,0,0,0,0,0,0,1,
scooby_state_455d39|11|0 1,0,0,0,0,0,0,0,0,0,0,0,0,0,0,1,
scooby_state_455e34|43|0 1,0,0,0,0,0,0,0,0,0,0,0,0,0,0,1,
scooby_state_455cc3|47|0 1,0,0,0,0,0,0,0,0,0,0,0,0,0,0,1,
scooby_state_455d39|44|1 1,0,0,0,0,0,0,0,0,0,0,0,0,0,0,1,
scooby_state_455d47|43|0 1,0,0,0,0,0,0,0,0,0,0,0,0,0,0,1,
scooby_state_455ceb|44|-1 1,0,0,0,0,0,0,0,0,0,0,0,0,0,0,1,
scooby_state_455d39|39|1 1,0,0,0,0,0,0,0,0,0,0,0,0,0,0,1,
scooby_state_455c8d|32|0 1,0,0,0,0,0,0,0,0,0,0,0,0,0,0,1,
scooby_state_455cde|62|7 1,0,0,0,0,0,0,0,0,0,0,0,0,0,0,1,
scooby_state_455c87|50|1 1,0,0,0,0,0,0,0,0,0,0,0,0,0,0,1,
scooby_state_455d24|43|1 1,0,0,0,0,0,0,0,0,0,0,0,0,0,0,1,
scooby_state_455c8d|50|33 1,0,0,0,0,0,0,0,0,0,0,0,0,0,0,1,
scooby_state_455d39|27|-32 1,0,0,0,0,0,0,0,0,0,0,0,0,0,0,1,
scooby_state_455c87|63|31 1,0,0,0,0,0,0,0,0,0,0,0,0,0,0,1,
scooby_state_455de3|35|33 1,0,0,0,0,0,0,0,0,0,0,0,0,0,0,1,
scooby_state_455d39|54|1 1,0,0,0,0,0,0,0,0,0,0,0,0,0,0,1,
scooby_state_455d39|2|-32 1,0,0,0,0,0,0,0,0,0,0,0,0,0,0,1,
scooby_state_455d39|14|0 1,0,0,0,0,0,0,0,0,0,0,0,0,0,0,1,
scooby_state_455d47|60|0 1,0,0,0,0,0,0,0,0,0,0,0,0,0,0,1,
scooby_state_455a70|53|-5 1,0,0,0,0,0,0,0,0,0,0,0,0,0,0,1,
scooby_state_455c60|49|-9 1,0,0,0,0,0,0,0,0,0,0,0,0,0,0,1,
scooby_state_455a80|52|-1 1,0,0,0,0,0,0,0,0,0,0,0,0,0,0,1,
scooby_state_455901|36|1 1,0,0,0,0,0,0,0,0,0,0,0,0,0,0,1,
scooby_state_455dc7|55|1 1,0,0,0,0,0,0,0,0,0,0,0,0,0,0,1,
scooby_state_455d24|36|1 1,0,0,0,0,0,0,0,0,0,0,0,0,0,0,1,
scooby_state_455d24|11|-33 1,0,0,0,0,0,0,0,0,0,0,0,0,0,0,1,
scooby_state_455c87|22|0 1,0,0,0,0,0,0,0,0,0,0,0,0,0,0,1,
scooby_state_455d47|41|0 1,0,0,0,0,0,0,0,0,0,0,0,0,0,0,1,
scooby_state_455d39|57|32 1,0,0,0,0,0,0,0,0,0,0,0,0,0,0,1,
scooby_state_455c8d|47|33 1,0,0,0,0,0,0,0,0,0,0,0,0,0,0,1,
scooby_state_455e78|9|8 1,0,0,0,0,0,0,0,0,0,0,0,0,0,0,1,
scooby_state_455d24|11|1 1,0,0,0,0,0,0,0,0,0,0,0,0,0,0,1,
scooby_state_455d39|48|1 1,0,0,0,0,0,0,0,0,0,0,0,0,0,0,1,
scooby_state_455ec3|59|9 1,0,0,0,0,0,0,0,0,0,0,0,0,0,0,1,
scooby_state_455cf9|41|1 1,0,0,0,0,0,0,0,0,0,0,0,0,0,0,1,
scooby_state_455d39|31|-32 1,0,0,0,0,0,0,0,0,0,0,0,0,0,0,1,
scooby_state_455c8d|59|34 1,0,0,0,0,0,0,0,0,0,0,0,0,0,0,1,
scooby_state_455d75|59|0 1,0,0,0,0,0,0,0,0,0,0,0,0,0,0,1,
scooby_state_455cc3|59|0 1,0,0,0,0,0,0,0,0,0,0,0,0,0,0,1,
scooby_state_455d39|53|32 1,0,0,0,0,0,0,0,0,0,0,0,0,0,0,1,
scooby_state_455e78|6|-30 1,0,0,0,0,0,0,0,0,0,0,0,0,0,0,1,
scooby_state_455d1a|7|0 1,0,0,0,0,0,0,0,0,0,0,0,0,0,0,1,
scooby_state_455cf1|55|0 1,0,0,0,0,0,0,0,0,0,0,0,0,0,0,1,
scooby_state_455cf9|40|0 1,0,0,0,0,0,0,0,0,0,0,0,0,0,0,1,
scooby_state_455d39|22|-32 1,0,0,0,0,0,0,0,0,0,0,0,0,0,0,1,
scooby_state_455cde|61|6 1,0,0,0,0,0,0,0,0,0,0,0,0,0,0,1,
scooby_state_455de3|52|33 1,0,0,0,0,0,0,0,0,0,0,0,0,0,0,1,
scooby_state_455d03|52|1 1,0,0,0,0,0,0,0,0,0,0,0,0,0,0,1,
scooby_state_455a02|40|1 1,0,0,0,0,0,0,0,0,0,0,0,0,0,0,1,
scooby_state_455d39|35|32 1,0,0,0,0,0,0,0,0,0,0,0,0,0,0,1,
scooby_state_455d39|10|0 1,0,0,0,0,0,0,0,0,0,0,0,0,0,0,1,
scooby_state_455d39|7|-1 1,0,0,0,0,0,0,0,0,0,0,0,0,0,0,1,
scooby_state_455e78|11|10 1,0,0,0,0,0,0,0,0,0,0,0,0,0,0,1,
scooby_state_455c87|17|-1 1,0,0,0,0,0,0,0,0,0,0,0,0,0,0,1,
scooby_state_455d39|51|1 1,0,0,0,0,0,0,0,0,0,0,0,0,0,0,1,
scooby_state_455d39|12|-32 1,0,0,0,0,0,0,0,0,0,0,0,0,0,0,1,
scooby_state_455d39|20|0 1,0,0,0,0,0,0,0,0,0,0,0,0,0,0,1,
scooby_state_455e04|56|1 1,0,0,0,0,0,0,0,0,0,0,0,0,0,0,1,
scooby_state_455e34|40|0 1,0,0,0,0,0,0,0,0,0,0,0,0,0,0,1,
scooby_state_455e34|33|0 1,0,0,0,0,0,0,0,0,0,0,0,0,0,0,1,
scooby_state_455cc3|56|0 1,0,0,0,0,0,0,0,0,0,0,0,0,0,0,1,
scooby_state_455d39|19|-32 1,0,0,0,0,0,0,0,0,0,0,0,0,0,0,1,
scooby_state_455d24|49|0 1,0,0,0,0,0,0,0,0,0,0,0,0,0,0,1,
scooby_state_455d47|55|0 1,0,0,0,0,0,0,0,0,0,0,0,0,0,0,1,
scooby_state_455cc3|61|0 1,0,0,0,0,0,0,0,0,0,0,0,0,0,0,1,
scooby_state_455ae8|50|-2 1,0,0,0,0,0,0,0,0,0,0,0,0,0,0,1,

scooby_action_0_deg_dist 0,147,0,0,0,0,0,0,0,0,0,0,0,0,0,0,
scooby_action_-6_deg_dist 0,128,0,0,0,0,0,0,0,0,0,0,0,0,0,0,
scooby_action_4_deg_dist 0,161,1,0,0,0,0,0,0,0,0,0,0,0,0,0,
scooby_action_1_deg_dist 0,587789,242649,0,42009,0,216954,0,0,0,0,0,0,0,0,0,
scooby_action_30_deg_dist 0,167,0,0,0,0,0,0,0,0,0,0,0,0,0,0,
scooby_action_5_deg_dist 0,153,1,0,0,0,0,0,0,0,0,0,0,0,0,0,
scooby_action_10_deg_dist 0,170,0,0,0,0,0,0,0,0,0,0,0,0,0,0,
scooby_action_3_deg_dist 0,192,2,0,0,0,0,0,0,0,0,0,0,0,0,0,
scooby_action_32_deg_dist 0,63042,2,0,0,0,0,0,0,0,0,0,0,0,0,0,
scooby_action_11_deg_dist 0,150,3,0,0,0,0,0,0,0,0,0,0,0,0,0,
scooby_action_12_deg_dist 0,159,0,0,0,0,0,0,0,0,0,0,0,0,0,0,
scooby_action_22_deg_dist 0,166,1,0,0,0,0,0,0,0,0,0,0,0,0,0,
scooby_action_23_deg_dist 0,160,0,0,0,0,0,0,0,0,0,0,0,0,0,0,
scooby_action_-1_deg_dist 0,141,0,0,0,0,0,0,0,0,0,0,0,0,0,0,
scooby_action_-3_deg_dist 0,140,0,0,0,0,0,0,0,0,0,0,0,0,0,0,

scooby_track_called 1154487
scooby_track_same_address 8542
scooby_track_evict 1145689

scooby_reward_demand_called 1154487
scooby_reward_demand_pt_not_found 396953
scooby_reward_demand_pt_found 757534
scooby_reward_demand_pt_found_total 757534
scooby_reward_demand_has_reward 0
scooby_reward_train_called 339227
scooby_reward_assign_reward_called 1145856
scooby_reward_no_pref 147
scooby_reward_incorrect 339080
scooby_reward_correct_untimely 268781
scooby_reward_correct_timely 488753
scooby_reward_out_of_bounds 49095
scooby_reward_tracker_hit 0

scooby_reward_none_low_bw 147
scooby_reward_none_high_bw 0
scooby_reward_incorrect_low_bw 339080
scooby_reward_incorrect_high_bw 0
scooby_reward_correct_untimely_low_bw 268781
scooby_reward_correct_untimely_high_bw 0
scooby_reward_correct_timely_low_bw 488753
scooby_reward_correct_timely_high_bw 0
scooby_reward_out_of_bounds_low_bw 49095
scooby_reward_out_of_bounds_high_bw 0
scooby_reward_tracker_hit_low_bw 0
scooby_reward_tracker_hit_high_bw 0

scooby_reward_1 0,335870,268711,459333,16974,0,
scooby_reward_3 0,142,31,6,4,0,
scooby_reward_4 0,136,13,3,10,0,
scooby_reward_5 0,114,23,9,8,0,
scooby_reward_10 0,112,0,29,29,0,
scooby_reward_11 0,107,0,29,17,0,
scooby_reward_12 0,109,0,20,30,0,
scooby_reward_22 0,110,0,0,57,0,
scooby_reward_23 0,102,0,0,58,0,
scooby_reward_30 0,96,0,0,71,0,
scooby_reward_32 0,1896,3,29324,31820,0,
scooby_reward_-1 0,88,0,0,1,0,
scooby_reward_-3 0,103,0,0,8,0,
scooby_reward_-6 0,95,0,0,8,0,
scooby_reward_0 147,0,0,0,0,0,

scooby_train_called 1145688
scooby_train_compute_reward 339227

scooby_register_fill_called 1268327
scooby_register_fill_set 758987
scooby_register_fill_set_total 758987

scooby_register_prefetch_hit_called 1158207
scooby_register_prefetch_hit_set 322870
scooby_register_prefetch_hit_set_total 322870

scooby_pref_issue_scooby 2448045

learning_engine_featurewise.action.called 1154487
learning_engine_featurewise.action.explore 2127
learning_engine_featurewise.action.exploit 1152360
learning_engine_featurewise.action.fallback 0
learning_engine_featurewise.action.dyn_fallback_saved_bw 0
learning_engine_featurewise.action.dyn_fallback_saved_bw_acc 134
learning_engine_featurewise.action.index_1_explored 139
learning_engine_featurewise.action.index_1_exploited 1089262
learning_engine_featurewise.action.index_3_explored 153
learning_engine_featurewise.action.index_3_exploited 41
learning_engine_featurewise.action.index_4_explored 145
learning_engine_featurewise.action.index_4_exploited 17
learning_engine_featurewise.action.index_5_explored 137
learning_engine_featurewise.action.index_5_exploited 17
learning_engine_featurewise.action.index_10_explored 155
learning_engine_featurewise.action.index_10_exploited 15
learning_engine_featurewise.action.index_11_explored 135
learning_engine_featurewise.action.index_11_exploited 18
learning_engine_featurewise.action.index_12_explored 143
learning_engine_featurewise.action.index_12_exploited 16
learning_engine_featurewise.action.index_22_explored 150
learning_engine_featurewise.action.index_22_exploited 17
learning_engine_featurewise.action.index_23_explored 144
learning_engine_featurewise.action.index_23_exploited 16
learning_engine_featurewise.action.index_30_explored 151
learning_engine_featurewise.action.index_30_exploited 16
learning_engine_featurewise.action.index_32_explored 123
learning_engine_featurewise.action.index_32_exploited 62921
learning_engine_featurewise.action.index_-1_explored 140
learning_engine_featurewise.action.index_-1_exploited 1
learning_engine_featurewise.action.index_-3_explored 140
learning_engine_featurewise.action.index_-3_exploited 0
learning_engine_featurewise.action.index_-6_explored 128
learning_engine_featurewise.action.index_-6_exploited 0
learning_engine_featurewise.action.index_0_explored 144
learning_engine_featurewise.action.index_0_exploited 3
learning_engine_featurewise.learn.called 1145688
learning_engine_featurewise.learn.su_skip_PC 0
learning_engine_featurewise.learn.su_skip_PC_Delta 0

learning_engine_featurewise.q_value_histogram.bucket_0 0
learning_engine_featurewise.q_value_histogram.bucket_1 0
learning_engine_featurewise.q_value_histogram.bucket_2 0
learning_engine_featurewise.q_value_histogram.bucket_3 0
learning_engine_featurewise.q_value_histogram.bucket_4 1278
learning_engine_featurewise.q_value_histogram.bucket_5 2013
learning_engine_featurewise.q_value_histogram.bucket_6 1149069
learning_engine_featurewise.q_value_histogram.bucket_7 0

learning_engine_featurewise.consensus.total 1152360
learning_engine_featurewise.consensus.feature_align_PC 1152284
learning_engine_featurewise.consensus.feature_align_PC_ratio 1.00
learning_engine_featurewise.consensus.feature_align_PC_Delta 1055235
learning_engine_featurewise.consensus.feature_align_PC_Delta_ratio 0.92
learning_engine_featurewise.consensus.feature_align_all 1055159
learning_engine_featurewise.consensus.feature_align_all_ratio 0.92

learning_engine_featurewise.feature_PC_min_weight 1000000.00000000
learning_engine_featurewise.feature_PC_max_weight 0.00000000
learning_engine_featurewise.feature_PC_Delta_min_weight 1000000.00000000
learning_engine_featurewise.feature_PC_Delta_max_weight 0.00000000
unique_pcs 66
unique_pages 154361
unique_trigger_pcs 32
total_bitmaps_seen 0
unique_bitmaps_seen 0

scooby_bw_epochs 390576
scooby_bw_level_0 136413
scooby_bw_level_1 197716
scooby_bw_level_2 43377
scooby_bw_level_3 13070

scooby_ipc_epochs 0
scooby_ipc_level_0 0
scooby_ipc_level_1 0
scooby_ipc_level_2 0
scooby_ipc_level_3 0

scooby_cache_acc_epochs 81229
scooby_cache_acc_level_0 1
scooby_cache_acc_level_1 1
scooby_cache_acc_level_2 23
scooby_cache_acc_level_3 961
scooby_cache_acc_level_4 9439
scooby_cache_acc_level_5 31079
scooby_cache_acc_level_6 24164
scooby_cache_acc_level_7 9902
scooby_cache_acc_level_8 3548
scooby_cache_acc_level_9 2111

Channel_0_RQ_row_buffer_hit 420014
Channel_0_RQ_row_buffer_miss 845908
Channel_0_WQ_row_buffer_hit 120829
Channel_0_WQ_row_buffer_miss 365536
Channel_0_WQ_full 0
Channel_0_dbus_congested 846125

avg_congested_cycle 10

DRAM_bw_pochs 390576
DRAM_bw_level_0 136413
DRAM_bw_level_1 197716
DRAM_bw_level_2 43377
DRAM_bw_level_3 13070
