*************************************************
   ChampSim Multicore Out-of-Order Simulator
   Last compiled: Apr  3 2025 20:54:34
*************************************************
parsing config file: /home/zir/Pythia/config/pythia.ini

trace_0 /home/zir/ChampSim/ML-DPC/ChampSimTraces/spec06/410.bwaves-s0.trace.gz
adding L2C_PREFETCHER: Scooby
Initialize SHIP state
warmup_instructions 10000000
simulation_instructions 50000000
champsim_seed 163
measure_ipc 0
measure_ipc_epoch 1000
measure_dram_bw 1
measure_dram_bw_epoch 256
measure_cache_acc 1
measure_cache_acc_epoch 1024
l1d_perfect 0
l2c_perfect 0
llc_perfect 0
l1d_semi_perfect 0
l2c_semi_perfect 0
llc_semi_perfect 0
semi_perfect_cache_page_buffer_size 64

num_cpus 1
cpu_freq 4000
dram_io_freq 2400
page_size 4096
block_size 64
max_read_per_cycle 8
max_fill_per_cycle 1
dram_channels 1
log2_dram_channels 0
dram_ranks 1
dram_banks 8
dram_rows 65536
dram_columns 128
dram_row_size 8
dram_size 4096
dram_pages 1048576

fetch_width 6
decode_width 6
exec_width 4
lq_width 2
sq_width 2
retire_width 4
scheduler_size 128
branch_mispredict_penalty 20
rob_size 256
lq_size 72
sq_size 56
num_instr_destinations_sparc 4
num_instr_destinations 2
num_instr_sources 4

itlb_set 16
itlb_way 8
itlb_rq_size 16
itlb_wq_size 16
itlb_pq_size 0
itlb_mshr_size 8
itlb_latency 1

dtlb_set 16
dtlb_way 4
dtlb_rq_size 16
dtlb_wq_size 16
dtlb_pq_size 0
dtlb_mshr_size 8
dtlb_latency 1

stlb_set 128
stlb_way 12
stlb_rq_size 32
stlb_wq_size 32
stlb_pq_size 0
stlb_mshr_size 16
stlb_latency 8

l1i_size 32
l1i_set 64
l1i_way 8
l1i_rq_size 64
l1i_wq_size 64
l1i_pq_size 8
l1i_mshr_size 8
l1i_latency 1

l1d_size 32
l1d_set 64
l1d_way 8
l1d_rq_size 64
l1d_wq_size 64
l1d_pq_size 8
l1d_mshr_size 16
l1d_latency 4

l2c_size 256
l2c_set 512
l2c_way 8
l2c_rq_size 32
l2c_wq_size 32
l2c_pq_size 32
l2c_mshr_size 32
l2c_latency 10

llc_size 2048
llc_set 2048
llc_way 16
llc_rq_size 32
llc_wq_size 32
llc_pq_size 32
llc_mshr_size 64
llc_latency 20

dram_channel_width 8
dram_wq_size 64
dram_rq_size 64
tRP 15
tRCD 15
tCAS 12.5
dram_dbus_turn_around_time 30
dram_write_high_wm 56
dram_write_low_wm 48
min_dram_writes_per_switch 16
dram_mtps 2400
dram_dbus_return_time 13

scooby_alpha 0.0065088
scooby_gamma 0.556301
scooby_epsilon 0.00182284
scooby_state_num_bits 10
scooby_max_states 1024
scooby_seed 200
scooby_policy EGreedy
scooby_learning_type SARSA
scooby_actions 1,3,4,5,10,11,12,22,23,30,32,-1,-3,-6,0,
scooby_max_actions 15
scooby_pt_size 256
scooby_st_size 64
scooby_max_pcs 5
scooby_max_offsets 5
scooby_max_deltas 5
scooby_reward_none -4
scooby_reward_incorrect -8
scooby_reward_correct_untimely 12
scooby_reward_correct_timely 20
scooby_brain_zero_init 0
scooby_enable_reward_all 0
scooby_enable_track_multiple 0
scooby_enable_reward_out_of_bounds 1
scooby_reward_out_of_bounds -12
scooby_state_type 1
scooby_state_hash_type 11
scooby_access_debug 0
scooby_print_access_debug 0
scooby_print_access_debug_pc deadbeef
scooby_print_access_debug_pc_count 0
scooby_print_trace 0
scooby_enable_state_action_stats 1
scooby_enable_reward_tracker_hit 0
scooby_reward_tracker_hit -2
scooby_enable_featurewise_engine 1
scooby_pref_degree 1
scooby_enable_dyn_degree 1
scooby_max_to_avg_q_thresholds 0.5,1,2,
scooby_dyn_degrees 1,2,4,4,
scooby_multi_deg_select_type 2
scooby_last_pref_offset_conf_thresholds 1,3,8,
scooby_dyn_degrees_type2 1,2,4,6,
scooby_action_tracker_size 2
scooby_high_bw_thresh 4
scooby_enable_hbw_reward 1
scooby_reward_hbw_correct_timely 20
scooby_reward_hbw_correct_untimely 12
scooby_reward_hbw_incorrect -14
scooby_reward_hbw_none -2
scooby_reward_hbw_out_of_bounds -12
scooby_reward_hbw_tracker_hit -2
scooby_last_pref_offset_conf_thresholds_hbw 1,3,8,
scooby_dyn_degrees_type2_hbw 1,2,4,6,

le_enable_trace 0
le_trace_interval 0
le_trace_file_name 
le_trace_state 0
le_enable_score_plot 0
le_plot_file_name 
le_plot_actions 
le_enable_action_trace 0
le_action_trace_interval 0
le_action_trace_name 
le_enable_action_plot 0

le_featurewise_active_features PC, PC_Delta
le_featurewise_num_tilings 3,3,
le_featurewise_num_tiles 128,128,
le_featurewise_hash_types 2,2,
le_featurewise_enable_tiling_offset 1,1,
le_featurewise_max_q_thresh 0.5
le_featurewise_enable_action_fallback 1
le_featurewise_feature_weights 1,1,
le_featurewise_enable_dynamic_weight 0
le_featurewise_weight_gradient 0.001
le_featurewise_disable_adjust_weight_all_features_align 1
le_featurewise_selective_update 0
le_featurewise_pooling_type 2
le_featurewise_enable_dyn_action_fallback 1
le_featurewise_bw_acc_check_level 1
le_featurewise_acc_thresh 2
le_featurewise_enable_trace 0
le_featurewise_trace_feature_type 0
le_featurewise_trace_feature 
le_featurewise_trace_interval 0
le_featurewise_trace_record_count 0
le_featurewise_trace_file_name 
le_featurewise_enable_score_plot 0
le_featurewise_plot_actions 
le_featurewise_plot_file_name 


Heartbeat CPU  0 instructions:    1000002 cycles:     630806 heartbeat IPC: 1.58528 cumulative IPC: 1.58528 (Simulation time: 0 hr 0 min 3 sec) 
Heartbeat CPU  0 instructions:    2000003 cycles:    1259813 heartbeat IPC: 1.58981 cumulative IPC: 1.58754 (Simulation time: 0 hr 0 min 5 sec) 
Heartbeat CPU  0 instructions:    3000000 cycles:    1888823 heartbeat IPC: 1.58980 cumulative IPC: 1.58829 (Simulation time: 0 hr 0 min 7 sec) 
Heartbeat CPU  0 instructions:    4000000 cycles:    2517645 heartbeat IPC: 1.59028 cumulative IPC: 1.58879 (Simulation time: 0 hr 0 min 9 sec) 
Heartbeat CPU  0 instructions:    5000000 cycles:    3146920 heartbeat IPC: 1.58913 cumulative IPC: 1.58886 (Simulation time: 0 hr 0 min 12 sec) 
Heartbeat CPU  0 instructions:    6000001 cycles:    3775803 heartbeat IPC: 1.59012 cumulative IPC: 1.58907 (Simulation time: 0 hr 0 min 14 sec) 
Heartbeat CPU  0 instructions:    7000003 cycles:    4404810 heartbeat IPC: 1.58981 cumulative IPC: 1.58917 (Simulation time: 0 hr 0 min 16 sec) 
Heartbeat CPU  0 instructions:    8000000 cycles:    5033791 heartbeat IPC: 1.58987 cumulative IPC: 1.58926 (Simulation time: 0 hr 0 min 18 sec) 
Heartbeat CPU  0 instructions:    9000001 cycles:    5662849 heartbeat IPC: 1.58968 cumulative IPC: 1.58931 (Simulation time: 0 hr 0 min 21 sec) 
Heartbeat CPU  0 instructions:   10000003 cycles:    6291766 heartbeat IPC: 1.59004 cumulative IPC: 1.58938 (Simulation time: 0 hr 0 min 23 sec) 

Warmup complete CPU  0 instructions:   10000003 cycles:    6291766 (Simulation time: 0 hr 0 min 23 sec) 

Heartbeat CPU  0 instructions:   11000003 cycles:    7150048 heartbeat IPC: 1.16512 cumulative IPC: 1.16512 (Simulation time: 0 hr 0 min 25 sec) 
Heartbeat CPU  0 instructions:   12000000 cycles:    8019548 heartbeat IPC: 1.15008 cumulative IPC: 1.15755 (Simulation time: 0 hr 0 min 28 sec) 
Heartbeat CPU  0 instructions:   13000001 cycles:    8880712 heartbeat IPC: 1.16122 cumulative IPC: 1.15877 (Simulation time: 0 hr 0 min 31 sec) 
Heartbeat CPU  0 instructions:   14000001 cycles:    9745722 heartbeat IPC: 1.15606 cumulative IPC: 1.15809 (Simulation time: 0 hr 0 min 33 sec) 
Heartbeat CPU  0 instructions:   15000000 cycles:   10610747 heartbeat IPC: 1.15603 cumulative IPC: 1.15768 (Simulation time: 0 hr 0 min 36 sec) 
Heartbeat CPU  0 instructions:   16000000 cycles:   11471267 heartbeat IPC: 1.16209 cumulative IPC: 1.15841 (Simulation time: 0 hr 0 min 38 sec) 
Heartbeat CPU  0 instructions:   17000001 cycles:   12335545 heartbeat IPC: 1.15704 cumulative IPC: 1.15822 (Simulation time: 0 hr 0 min 41 sec) 
Heartbeat CPU  0 instructions:   18000003 cycles:   13200908 heartbeat IPC: 1.15559 cumulative IPC: 1.15789 (Simulation time: 0 hr 0 min 43 sec) 
Heartbeat CPU  0 instructions:   19000000 cycles:   14062894 heartbeat IPC: 1.16011 cumulative IPC: 1.15813 (Simulation time: 0 hr 0 min 46 sec) 
Heartbeat CPU  0 instructions:   20000000 cycles:   14921732 heartbeat IPC: 1.16436 cumulative IPC: 1.15875 (Simulation time: 0 hr 0 min 48 sec) 
Heartbeat CPU  0 instructions:   21000002 cycles:   15782988 heartbeat IPC: 1.16110 cumulative IPC: 1.15897 (Simulation time: 0 hr 0 min 51 sec) 
Heartbeat CPU  0 instructions:   22000001 cycles:   16647493 heartbeat IPC: 1.15673 cumulative IPC: 1.15878 (Simulation time: 0 hr 0 min 53 sec) 
Heartbeat CPU  0 instructions:   23000003 cycles:   17510956 heartbeat IPC: 1.15813 cumulative IPC: 1.15873 (Simulation time: 0 hr 0 min 56 sec) 
Heartbeat CPU  0 instructions:   24000000 cycles:   18370037 heartbeat IPC: 1.16403 cumulative IPC: 1.15911 (Simulation time: 0 hr 0 min 58 sec) 
Heartbeat CPU  0 instructions:   25000002 cycles:   19231268 heartbeat IPC: 1.16113 cumulative IPC: 1.15924 (Simulation time: 0 hr 1 min 1 sec) 
Heartbeat CPU  0 instructions:   26000002 cycles:   20092048 heartbeat IPC: 1.16174 cumulative IPC: 1.15940 (Simulation time: 0 hr 1 min 3 sec) 
Heartbeat CPU  0 instructions:   27000003 cycles:   20951214 heartbeat IPC: 1.16392 cumulative IPC: 1.15966 (Simulation time: 0 hr 1 min 6 sec) 
Heartbeat CPU  0 instructions:   28000000 cycles:   21815036 heartbeat IPC: 1.15764 cumulative IPC: 1.15955 (Simulation time: 0 hr 1 min 8 sec) 
Heartbeat CPU  0 instructions:   29000000 cycles:   22674862 heartbeat IPC: 1.16303 cumulative IPC: 1.15973 (Simulation time: 0 hr 1 min 11 sec) 
Heartbeat CPU  0 instructions:   30000002 cycles:   23539237 heartbeat IPC: 1.15691 cumulative IPC: 1.15959 (Simulation time: 0 hr 1 min 13 sec) 
Heartbeat CPU  0 instructions:   31000002 cycles:   24395252 heartbeat IPC: 1.16820 cumulative IPC: 1.16000 (Simulation time: 0 hr 1 min 16 sec) 
Heartbeat CPU  0 instructions:   32000000 cycles:   25258776 heartbeat IPC: 1.15804 cumulative IPC: 1.15991 (Simulation time: 0 hr 1 min 18 sec) 
Heartbeat CPU  0 instructions:   33000000 cycles:   26127569 heartbeat IPC: 1.15102 cumulative IPC: 1.15952 (Simulation time: 0 hr 1 min 21 sec) 
Heartbeat CPU  0 instructions:   34000001 cycles:   26986917 heartbeat IPC: 1.16367 cumulative IPC: 1.15969 (Simulation time: 0 hr 1 min 23 sec) 
Heartbeat CPU  0 instructions:   35000002 cycles:   27847414 heartbeat IPC: 1.16212 cumulative IPC: 1.15979 (Simulation time: 0 hr 1 min 26 sec) 
Heartbeat CPU  0 instructions:   36000000 cycles:   28705116 heartbeat IPC: 1.16590 cumulative IPC: 1.16002 (Simulation time: 0 hr 1 min 28 sec) 
Heartbeat CPU  0 instructions:   37000001 cycles:   29571142 heartbeat IPC: 1.15470 cumulative IPC: 1.15982 (Simulation time: 0 hr 1 min 31 sec) 
Heartbeat CPU  0 instructions:   38000001 cycles:   30431331 heartbeat IPC: 1.16254 cumulative IPC: 1.15992 (Simulation time: 0 hr 1 min 33 sec) 
Heartbeat CPU  0 instructions:   39000003 cycles:   31290231 heartbeat IPC: 1.16428 cumulative IPC: 1.16007 (Simulation time: 0 hr 1 min 36 sec) 
Heartbeat CPU  0 instructions:   40000000 cycles:   32149903 heartbeat IPC: 1.16323 cumulative IPC: 1.16018 (Simulation time: 0 hr 1 min 38 sec) 
Heartbeat CPU  0 instructions:   41000001 cycles:   33008585 heartbeat IPC: 1.16458 cumulative IPC: 1.16032 (Simulation time: 0 hr 1 min 41 sec) 
Heartbeat CPU  0 instructions:   42000000 cycles:   33872105 heartbeat IPC: 1.15805 cumulative IPC: 1.16025 (Simulation time: 0 hr 1 min 43 sec) 
Heartbeat CPU  0 instructions:   43000001 cycles:   34734638 heartbeat IPC: 1.15938 cumulative IPC: 1.16022 (Simulation time: 0 hr 1 min 46 sec) 
Heartbeat CPU  0 instructions:   44000000 cycles:   35593517 heartbeat IPC: 1.16431 cumulative IPC: 1.16034 (Simulation time: 0 hr 1 min 48 sec) 
Heartbeat CPU  0 instructions:   45000000 cycles:   36456509 heartbeat IPC: 1.15876 cumulative IPC: 1.16029 (Simulation time: 0 hr 1 min 51 sec) 
Heartbeat CPU  0 instructions:   46000000 cycles:   37318694 heartbeat IPC: 1.15984 cumulative IPC: 1.16028 (Simulation time: 0 hr 1 min 54 sec) 
Heartbeat CPU  0 instructions:   47000000 cycles:   38182551 heartbeat IPC: 1.15760 cumulative IPC: 1.16021 (Simulation time: 0 hr 1 min 56 sec) 
Heartbeat CPU  0 instructions:   48000000 cycles:   39046623 heartbeat IPC: 1.15731 cumulative IPC: 1.16013 (Simulation time: 0 hr 1 min 59 sec) 
Heartbeat CPU  0 instructions:   49000001 cycles:   39912561 heartbeat IPC: 1.15482 cumulative IPC: 1.16000 (Simulation time: 0 hr 2 min 1 sec) 
Heartbeat CPU  0 instructions:   50000002 cycles:   40772068 heartbeat IPC: 1.16346 cumulative IPC: 1.16008 (Simulation time: 0 hr 2 min 4 sec) 
Heartbeat CPU  0 instructions:   51000000 cycles:   41640346 heartbeat IPC: 1.15170 cumulative IPC: 1.15988 (Simulation time: 0 hr 2 min 6 sec) 
Heartbeat CPU  0 instructions:   52000000 cycles:   42500407 heartbeat IPC: 1.16271 cumulative IPC: 1.15994 (Simulation time: 0 hr 2 min 9 sec) 
Heartbeat CPU  0 instructions:   53000003 cycles:   43363943 heartbeat IPC: 1.15803 cumulative IPC: 1.15990 (Simulation time: 0 hr 2 min 11 sec) 
Heartbeat CPU  0 instructions:   54000002 cycles:   44226995 heartbeat IPC: 1.15868 cumulative IPC: 1.15987 (Simulation time: 0 hr 2 min 14 sec) 
Heartbeat CPU  0 instructions:   55000000 cycles:   45093550 heartbeat IPC: 1.15399 cumulative IPC: 1.15974 (Simulation time: 0 hr 2 min 16 sec) 
Heartbeat CPU  0 instructions:   56000000 cycles:   45960872 heartbeat IPC: 1.15297 cumulative IPC: 1.15959 (Simulation time: 0 hr 2 min 19 sec) 
Heartbeat CPU  0 instructions:   57000003 cycles:   46827001 heartbeat IPC: 1.15457 cumulative IPC: 1.15949 (Simulation time: 0 hr 2 min 21 sec) 
Heartbeat CPU  0 instructions:   58000000 cycles:   47691559 heartbeat IPC: 1.15666 cumulative IPC: 1.15943 (Simulation time: 0 hr 2 min 24 sec) 
Heartbeat CPU  0 instructions:   59000001 cycles:   48553298 heartbeat IPC: 1.16045 cumulative IPC: 1.15945 (Simulation time: 0 hr 2 min 26 sec) 
Heartbeat CPU  0 instructions:   60000000 cycles:   49414794 heartbeat IPC: 1.16077 cumulative IPC: 1.15947 (Simulation time: 0 hr 2 min 29 sec) 
Finished CPU 0 instructions: 50000000 cycles: 43123088 cumulative IPC: 1.15947 (Simulation time: 0 hr 2 min 29 sec) 

ChampSim completed all CPUs

[ROI Statistics]
Core_0_instructions 50000000
Core_0_cycles 43123088
Core_0_IPC 1.15947

Core_0_branch_prediction_accuracy 99.94973
Core_0_branch_MPKI 0.01504
Core_0_average_ROB_occupancy_at_mispredict 248.18750

Core_0_L1D_total_access 20380628
Core_0_L1D_total_hit 19165443
Core_0_L1D_total_miss 1215185
Core_0_L1D_loads 18999461
Core_0_L1D_load_hit 17813522
Core_0_L1D_load_miss 1185939
Core_0_L1D_RFOs 1381167
Core_0_L1D_RFO_hit 1351921
Core_0_L1D_RFO_miss 29246
Core_0_L1D_prefetches 0
Core_0_L1D_prefetch_hit 0
Core_0_L1D_prefetch_miss 0
Core_0_L1D_writebacks 0
Core_0_L1D_writeback_hit 0
Core_0_L1D_writeback_miss 0
Core_0_L1D_prefetch_requested 0
Core_0_L1D_prefetch_dropped 0
Core_0_L1D_prefetch_issued 0
Core_0_L1D_prefetch_filled 0
Core_0_L1D_prefetch_useful 0
Core_0_L1D_prefetch_useless 0
Core_0_L1D_prefetch_late 0
Core_0_L1D_average_miss_latency 40.77113

Core_0_L1D_rq_access 26135339
Core_0_L1D_rq_forward 0
Core_0_L1D_rq_merged 6933668
Core_0_L1D_rq_to_cache 19201671
Core_0_L1D_rq_full 0

Core_0_L1D_wq_access 1408347
Core_0_L1D_wq_forward 0
Core_0_L1D_wq_merged 0
Core_0_L1D_wq_to_cache 1408347
Core_0_L1D_wq_full 0

Core_0_L1D_pq_access 0
Core_0_L1D_pq_forward 0
Core_0_L1D_pq_merged 0
Core_0_L1D_pq_to_cache 0
Core_0_L1D_pq_full 0

Core_0_L1D_acc_epochs 46587
Core_0_L1D_acc_level_0 46587
Core_0_L1D_acc_level_1 0
Core_0_L1D_acc_level_2 0
Core_0_L1D_acc_level_3 0
Core_0_L1D_acc_level_4 0
Core_0_L1D_acc_level_5 0
Core_0_L1D_acc_level_6 0
Core_0_L1D_acc_level_7 0
Core_0_L1D_acc_level_8 0
Core_0_L1D_acc_level_9 0

Core_0_L1I_total_access 13636031
Core_0_L1I_total_hit 13636031
Core_0_L1I_total_miss 0
Core_0_L1I_loads 13636031
Core_0_L1I_load_hit 13636031
Core_0_L1I_load_miss 0
Core_0_L1I_RFOs 0
Core_0_L1I_RFO_hit 0
Core_0_L1I_RFO_miss 0
Core_0_L1I_prefetches 0
Core_0_L1I_prefetch_hit 0
Core_0_L1I_prefetch_miss 0
Core_0_L1I_writebacks 0
Core_0_L1I_writeback_hit 0
Core_0_L1I_writeback_miss 0
Core_0_L1I_prefetch_requested 0
Core_0_L1I_prefetch_dropped 0
Core_0_L1I_prefetch_issued 0
Core_0_L1I_prefetch_filled 0
Core_0_L1I_prefetch_useful 0
Core_0_L1I_prefetch_useless 0
Core_0_L1I_prefetch_late 0
Core_0_L1I_average_miss_latency -nan

Core_0_L1I_rq_access 50000007
Core_0_L1I_rq_forward 0
Core_0_L1I_rq_merged 36363976
Core_0_L1I_rq_to_cache 13636031
Core_0_L1I_rq_full 0

Core_0_L1I_wq_access 0
Core_0_L1I_wq_forward 0
Core_0_L1I_wq_merged 0
Core_0_L1I_wq_to_cache 0
Core_0_L1I_wq_full 0

Core_0_L1I_pq_access 0
Core_0_L1I_pq_forward 0
Core_0_L1I_pq_merged 0
Core_0_L1I_pq_to_cache 0
Core_0_L1I_pq_full 0

Core_0_L1I_acc_epochs 46587
Core_0_L1I_acc_level_0 46587
Core_0_L1I_acc_level_1 0
Core_0_L1I_acc_level_2 0
Core_0_L1I_acc_level_3 0
Core_0_L1I_acc_level_4 0
Core_0_L1I_acc_level_5 0
Core_0_L1I_acc_level_6 0
Core_0_L1I_acc_level_7 0
Core_0_L1I_acc_level_8 0
Core_0_L1I_acc_level_9 0

Core_0_L2C_total_access 4642863
Core_0_L2C_total_hit 3504235
Core_0_L2C_total_miss 1138628
Core_0_L2C_loads 1185584
Core_0_L2C_load_hit 1098117
Core_0_L2C_load_miss 87467
Core_0_L2C_RFOs 29228
Core_0_L2C_RFO_hit 39
Core_0_L2C_RFO_miss 29189
Core_0_L2C_prefetches 3395934
Core_0_L2C_prefetch_hit 2374129
Core_0_L2C_prefetch_miss 1021805
Core_0_L2C_writebacks 32117
Core_0_L2C_writeback_hit 31950
Core_0_L2C_writeback_miss 167
Core_0_L2C_prefetch_requested 7248124
Core_0_L2C_prefetch_dropped 2197449
Core_0_L2C_prefetch_issued 5050675
Core_0_L2C_prefetch_filled 1235150
Core_0_L2C_prefetch_useful 1235080
Core_0_L2C_prefetch_useless 18
Core_0_L2C_prefetch_late 34433
Core_0_L2C_average_miss_latency 290.76669

Core_0_L2C_rq_access 1215185
Core_0_L2C_rq_forward 0
Core_0_L2C_rq_merged 0
Core_0_L2C_rq_to_cache 1214812
Core_0_L2C_rq_full 0

Core_0_L2C_wq_access 32117
Core_0_L2C_wq_forward 385
Core_0_L2C_wq_merged 0
Core_0_L2C_wq_to_cache 32117
Core_0_L2C_wq_full 0

Core_0_L2C_pq_access 5050675
Core_0_L2C_pq_forward 0
Core_0_L2C_pq_merged 522926
Core_0_L2C_pq_to_cache 4527737
Core_0_L2C_pq_full 0

Core_0_L2C_acc_epochs 46587
Core_0_L2C_acc_level_0 1
Core_0_L2C_acc_level_1 0
Core_0_L2C_acc_level_2 4
Core_0_L2C_acc_level_3 4
Core_0_L2C_acc_level_4 30
Core_0_L2C_acc_level_5 80
Core_0_L2C_acc_level_6 256
Core_0_L2C_acc_level_7 1639
Core_0_L2C_acc_level_8 6715
Core_0_L2C_acc_level_9 37858

Core_0_LLC_total_access 1167872
Core_0_LLC_total_hit 804
Core_0_LLC_total_miss 1167068
Core_0_LLC_loads 53091
Core_0_LLC_load_hit 8
Core_0_LLC_load_miss 53083
Core_0_LLC_RFOs 29189
Core_0_LLC_RFO_hit 0
Core_0_LLC_RFO_miss 29189
Core_0_LLC_prefetches 1056181
Core_0_LLC_prefetch_hit 431
Core_0_LLC_prefetch_miss 1055750
Core_0_LLC_writebacks 29411
Core_0_LLC_writeback_hit 365
Core_0_LLC_writeback_miss 29046
Core_0_LLC_prefetch_requested 0
Core_0_LLC_prefetch_dropped 0
Core_0_LLC_prefetch_issued 0
Core_0_LLC_prefetch_filled 1267234
Core_0_LLC_prefetch_useful 28
Core_0_LLC_prefetch_useless 1263207
Core_0_LLC_prefetch_late 0
Core_0_LLC_average_miss_latency 256.99199

Core_0_LLC_rq_access 82280
Core_0_LLC_rq_forward 0
Core_0_LLC_rq_merged 0
Core_0_LLC_rq_to_cache 82280
Core_0_LLC_rq_full 0

Core_0_LLC_wq_access 29411
Core_0_LLC_wq_forward 0
Core_0_LLC_wq_merged 0
Core_0_LLC_wq_to_cache 29411
Core_0_LLC_wq_full 0

Core_0_LLC_pq_access 1269583
Core_0_LLC_pq_forward 0
Core_0_LLC_pq_merged 0
Core_0_LLC_pq_to_cache 1269583
Core_0_LLC_pq_full 0

Core_0_LLC_acc_epochs 48257
Core_0_LLC_acc_level_0 48257
Core_0_LLC_acc_level_1 0
Core_0_LLC_acc_level_2 0
Core_0_LLC_acc_level_3 0
Core_0_LLC_acc_level_4 0
Core_0_LLC_acc_level_5 0
Core_0_LLC_acc_level_6 0
Core_0_LLC_acc_level_7 0
Core_0_LLC_acc_level_8 0
Core_0_LLC_acc_level_9 0

Core_0_major_page_fault 0
Core_0_minor_page_fault 20347

scooby_st_lookup 1428152
scooby_st_hit 1407338
scooby_st_evict 20750
scooby_st_insert 20814
scooby_st_streaming 0

scooby_predict_called 1428152
scooby_predict_out_of_bounds 22286
scooby_predict_action_1 1403485
scooby_predict_issue_action_1 1379383
scooby_predict_hit_action_1 24102
scooby_predict_out_of_bounds_action_1 21862
scooby_predict_action_3 506
scooby_predict_issue_action_3 505
scooby_predict_hit_action_3 1
scooby_predict_out_of_bounds_action_3 11
scooby_predict_action_4 173
scooby_predict_issue_action_4 173
scooby_predict_hit_action_4 0
scooby_predict_out_of_bounds_action_4 10
scooby_predict_action_5 155
scooby_predict_issue_action_5 155
scooby_predict_hit_action_5 0
scooby_predict_out_of_bounds_action_5 14
scooby_predict_action_10 171
scooby_predict_issue_action_10 171
scooby_predict_hit_action_10 0
scooby_predict_out_of_bounds_action_10 31
scooby_predict_action_11 139
scooby_predict_issue_action_11 139
scooby_predict_hit_action_11 0
scooby_predict_out_of_bounds_action_11 24
scooby_predict_action_12 153
scooby_predict_issue_action_12 153
scooby_predict_hit_action_12 0
scooby_predict_out_of_bounds_action_12 32
scooby_predict_action_22 128
scooby_predict_issue_action_22 128
scooby_predict_hit_action_22 0
scooby_predict_out_of_bounds_action_22 55
scooby_predict_action_23 116
scooby_predict_issue_action_23 116
scooby_predict_hit_action_23 0
scooby_predict_out_of_bounds_action_23 61
scooby_predict_action_30 102
scooby_predict_issue_action_30 102
scooby_predict_hit_action_30 0
scooby_predict_out_of_bounds_action_30 82
scooby_predict_action_32 76
scooby_predict_issue_action_32 76
scooby_predict_hit_action_32 0
scooby_predict_out_of_bounds_action_32 77
scooby_predict_action_-1 168
scooby_predict_issue_action_-1 4
scooby_predict_hit_action_-1 164
scooby_predict_out_of_bounds_action_-1 4
scooby_predict_action_-3 165
scooby_predict_issue_action_-3 5
scooby_predict_hit_action_-3 160
scooby_predict_out_of_bounds_action_-3 5
scooby_predict_action_-6 147
scooby_predict_issue_action_-6 11
scooby_predict_hit_action_-6 136
scooby_predict_out_of_bounds_action_-6 18
scooby_predict_action_0 182
scooby_predict_issue_action_0 0
scooby_predict_hit_action_0 0
scooby_predict_out_of_bounds_action_0 0
scooby_predict_multi_deg_called 1314207
scooby_predict_predicted 7248124
scooby_predict_multi_deg 5867003
scooby_predict_multi_deg_2 1292387
scooby_predict_multi_deg_3 1228945
scooby_predict_multi_deg_4 1207112
scooby_predict_multi_deg_5 1080191
scooby_predict_multi_deg_6 1058368
scooby_predict_multi_deg_7 0
scooby_predict_multi_deg_8 0
scooby_predict_multi_deg_9 0
scooby_predict_multi_deg_10 0
scooby_predict_multi_deg_11 0
scooby_predict_multi_deg_12 0
scooby_predict_multi_deg_13 0
scooby_predict_multi_deg_14 0
scooby_predict_multi_deg_15 0
scooby_predict_multi_deg_16 0

scooby_selected_deg_1 66914
scooby_selected_deg_2 41628
scooby_selected_deg_3 0
scooby_selected_deg_4 105105
scooby_selected_deg_5 0
scooby_selected_deg_6 1167474
scooby_selected_deg_7 0
scooby_selected_deg_8 0
scooby_selected_deg_9 0
scooby_selected_deg_10 0
scooby_selected_deg_11 0
scooby_selected_deg_12 0
scooby_selected_deg_13 0
scooby_selected_deg_14 0
scooby_selected_deg_15 0
scooby_selected_deg_16 0

scooby_state_4019e0|32|1 3524,1,0,1,1,2,0,0,0,0,0,0,0,0,0,3529,
scooby_state_4019f7|32|1 3227,0,1,1,1,0,1,0,0,1,0,0,0,1,0,3233,
scooby_state_401a54|32|1 3139,0,0,1,0,1,0,0,1,0,0,1,0,0,0,3143,
scooby_state_4019e0|33|1 3053,0,0,0,2,0,0,0,0,1,0,0,1,0,0,3057,
scooby_state_401a3d|32|1 2971,1,1,0,1,0,0,0,0,0,0,0,0,0,0,2974,
scooby_state_401a26|32|1 2903,0,0,0,0,0,0,0,0,1,0,0,0,0,0,2904,
scooby_state_401a54|33|1 2894,0,1,0,1,0,1,2,1,0,0,0,0,0,1,2901,
scooby_state_401a07|32|1 2891,0,1,0,1,1,0,1,0,0,1,0,1,0,1,2898,
scooby_state_401a16|32|1 2864,0,0,1,0,0,1,0,1,1,0,1,2,1,0,2872,
scooby_state_401a26|33|1 2832,0,1,2,2,0,0,2,0,0,0,0,1,0,1,2841,
scooby_state_4019f7|33|1 2823,0,0,0,0,0,1,0,0,0,0,0,1,0,1,2826,
scooby_state_401a3d|33|1 2789,2,1,0,1,0,0,0,0,0,0,0,0,0,0,2793,
scooby_state_401a07|33|1 2744,2,0,0,2,1,0,1,1,0,0,1,1,0,0,2753,
scooby_state_401a16|33|1 2739,0,0,0,2,0,0,1,0,0,0,0,0,0,1,2743,
scooby_state_401a54|3|1 2730,1,0,1,0,0,0,0,1,0,0,0,0,2,2,2737,
scooby_state_4019f7|24|1 2732,2,0,0,1,1,1,0,0,0,0,0,0,0,0,2737,
scooby_state_401a07|17|1 2731,0,0,1,0,0,1,0,1,0,1,2,0,0,0,2737,
scooby_state_401a07|0|0 2735,0,1,0,0,0,0,0,1,0,0,0,0,0,0,2737,
scooby_state_4019f7|59|1 2730,0,0,1,0,2,0,1,0,0,1,0,0,2,0,2737,
scooby_state_401a3d|60|1 2735,0,0,0,0,0,0,1,1,0,0,0,0,0,0,2737,
scooby_state_401a3d|23|1 2732,0,0,0,0,2,1,0,0,0,0,0,0,1,1,2737,
scooby_state_401a07|12|1 2733,0,0,0,0,0,0,0,0,1,0,1,1,0,1,2737,
scooby_state_401a16|1|1 2733,0,0,0,0,0,0,1,0,0,2,1,0,0,0,2737,
scooby_state_401a3d|8|1 2733,0,0,0,0,1,0,0,2,1,0,0,0,0,0,2737,
scooby_state_401a07|24|1 2734,0,1,0,0,0,0,1,1,0,0,0,0,0,0,2737,
scooby_state_401a3d|6|1 2733,0,1,0,0,1,0,0,0,0,0,0,2,0,0,2737,
scooby_state_401a54|22|1 2733,1,1,0,0,0,0,0,0,0,0,1,0,0,1,2737,
scooby_state_401a54|7|1 2732,0,0,0,0,0,2,0,0,1,0,1,1,0,0,2737,
scooby_state_4019e0|13|1 2730,0,1,0,0,0,1,0,1,2,0,1,1,0,0,2737,
scooby_state_401a07|23|1 2731,0,1,0,0,0,1,1,1,0,0,1,1,0,0,2737,
scooby_state_401a07|22|1 2736,0,0,0,0,1,0,0,0,0,0,0,0,0,0,2737,
scooby_state_401a54|2|1 2735,0,1,0,0,0,0,0,0,0,0,1,0,0,0,2737,
scooby_state_401a16|13|1 2734,0,0,0,1,0,0,0,0,0,2,0,0,0,0,2737,
scooby_state_401a26|9|1 2733,0,0,1,0,0,0,0,1,0,0,0,0,1,1,2737,
scooby_state_401a07|9|1 2733,0,0,0,0,0,0,0,1,1,0,0,0,1,1,2737,
scooby_state_401a54|10|1 2736,0,0,0,0,1,0,0,0,0,0,0,0,0,0,2737,
scooby_state_401a26|17|1 2731,0,0,0,0,0,1,2,0,0,0,1,1,1,0,2737,
scooby_state_401a07|58|1 2734,1,0,0,0,0,0,0,0,0,0,0,1,1,0,2737,
scooby_state_401a54|19|1 2735,0,0,0,0,0,0,0,0,1,0,0,0,0,1,2737,
scooby_state_401a54|18|1 2732,0,1,0,0,1,0,0,0,1,1,0,0,0,1,2737,
scooby_state_4019f7|18|1 2734,0,0,0,1,0,0,0,0,2,0,0,0,0,0,2737,
scooby_state_401a26|14|1 2729,0,2,0,1,2,1,0,1,0,0,0,1,0,0,2737,
scooby_state_401a16|59|1 2734,0,0,1,0,0,1,1,0,0,0,0,0,0,0,2737,
scooby_state_4019e0|6|1 2733,0,0,0,1,0,0,0,1,0,1,0,0,0,1,2737,
scooby_state_401a07|1|1 2734,1,0,0,0,0,0,0,1,0,0,0,0,1,0,2737,
scooby_state_401a07|2|1 2732,0,0,0,1,2,0,1,0,0,0,1,0,0,0,2737,
scooby_state_401a3d|24|1 2733,0,0,0,1,0,0,1,0,0,0,2,0,0,0,2737,
scooby_state_401a54|17|1 2736,0,0,0,0,0,1,0,0,0,0,0,0,0,0,2737,
scooby_state_401a3d|9|1 2734,0,1,0,0,0,0,0,1,0,0,0,0,0,1,2737,
scooby_state_401a07|8|1 2732,0,1,2,0,0,0,0,1,0,0,0,0,0,1,2737,
scooby_state_4019e0|12|1 2731,0,0,1,1,0,1,0,1,1,0,1,0,0,0,2737,
scooby_state_401a26|22|1 2732,0,0,0,1,0,1,1,0,0,0,0,2,0,0,2737,
scooby_state_401a3d|3|1 2736,0,0,0,0,0,0,1,0,0,0,0,0,0,0,2737,
scooby_state_4019e0|1|1 2732,0,2,0,1,1,0,0,0,0,0,0,1,0,0,2737,
scooby_state_4019e0|7|1 2730,0,1,1,2,0,1,0,0,0,0,1,1,0,0,2737,
scooby_state_4019f7|19|1 2731,1,0,0,0,2,0,1,1,0,0,1,0,0,0,2737,
scooby_state_401a3d|19|1 2733,0,0,1,0,0,1,1,0,0,1,0,0,0,0,2737,
scooby_state_401a07|13|1 2729,2,0,0,1,1,0,1,0,1,0,0,2,0,0,2737,
scooby_state_4019e0|0|0 2730,0,1,1,0,1,1,0,1,1,0,1,0,0,0,2737,
scooby_state_401a26|24|1 2730,1,0,0,0,1,1,0,0,1,0,1,1,1,0,2737,
scooby_state_401a3d|22|1 2728,0,0,1,0,0,2,1,3,0,0,0,1,1,0,2737,
scooby_state_401a26|0|0 2733,0,0,2,0,0,0,0,0,1,0,0,0,1,0,2737,
scooby_state_4019e0|17|1 2732,1,0,0,0,1,0,0,0,1,0,0,0,0,2,2737,
scooby_state_401a16|2|1 2731,0,0,1,1,1,1,1,0,0,0,0,0,1,0,2737,
scooby_state_401a54|9|1 2728,1,1,1,0,0,1,1,0,0,2,1,0,1,0,2737,
scooby_state_401a07|60|1 2735,0,0,0,0,0,0,0,0,0,0,0,1,1,0,2737,
scooby_state_4019e0|58|1 2733,0,0,0,0,0,0,1,0,1,1,0,0,1,0,2737,
scooby_state_401a54|6|1 2724,1,1,0,1,0,0,1,0,1,0,1,2,2,3,2737,
scooby_state_401a26|8|1 2733,0,0,1,0,0,1,0,0,0,0,1,0,0,1,2737,
scooby_state_401a07|6|1 2731,0,1,0,1,1,0,1,1,0,1,0,0,0,0,2737,
scooby_state_401a3d|58|1 2732,1,0,1,2,0,1,0,0,0,0,0,0,0,0,2737,
scooby_state_401a3d|57|1 2731,1,1,0,1,0,0,0,1,0,1,1,0,0,0,2737,
scooby_state_4019e0|19|1 2729,1,2,1,1,0,1,0,1,0,0,1,0,0,0,2737,
scooby_state_4019f7|17|1 2733,0,0,1,1,0,0,0,0,0,0,0,1,0,1,2737,
scooby_state_4019e0|3|1 2731,1,2,1,1,0,0,0,0,0,0,0,0,1,0,2737,
scooby_state_401a3d|18|1 2733,1,0,0,1,0,0,1,0,0,0,0,0,1,0,2737,
scooby_state_401a26|62|1 2730,2,0,0,1,0,0,0,0,0,0,2,1,1,0,2737,
scooby_state_401a16|23|1 2734,0,0,0,1,0,0,0,0,0,0,1,1,0,0,2737,
scooby_state_401a26|60|1 2734,0,1,1,0,0,0,0,0,0,0,0,1,0,0,2737,
scooby_state_4019e0|18|1 2733,0,0,0,0,1,0,0,0,0,0,1,1,1,0,2737,
scooby_state_4019f7|62|1 2728,1,1,0,2,1,0,2,0,0,0,0,0,1,1,2737,
scooby_state_401a16|12|1 2734,0,0,0,0,0,1,0,0,1,0,0,0,1,0,2737,
scooby_state_4019f7|8|1 2734,0,0,0,1,0,0,0,0,0,0,1,0,0,1,2737,
scooby_state_401a07|7|1 2732,0,0,0,1,1,1,0,1,0,0,0,0,0,1,2737,
scooby_state_4019f7|60|1 2734,0,0,1,0,1,0,0,0,0,1,0,0,0,0,2737,
scooby_state_401a26|23|1 2731,1,0,1,0,1,0,1,0,0,0,0,0,0,2,2737,
scooby_state_401a16|0|0 2730,0,3,0,0,0,1,0,0,0,2,0,0,1,0,2737,
scooby_state_4019f7|14|1 2735,0,0,0,0,0,0,0,0,1,0,0,0,1,0,2737,
scooby_state_401a26|61|1 2735,0,0,1,0,0,0,0,0,0,1,0,0,0,0,2737,
scooby_state_401a54|11|1 2734,0,0,0,0,0,0,0,1,0,1,0,0,1,0,2737,
scooby_state_4019f7|1|1 2728,1,0,1,0,1,1,0,1,2,0,1,1,0,0,2737,
scooby_state_401a16|3|1 2733,0,0,0,0,0,0,0,1,2,0,0,0,0,1,2737,
scooby_state_401a07|19|1 2732,1,1,1,0,0,0,0,1,0,0,0,0,1,0,2737,
scooby_state_4019f7|7|1 2734,0,1,0,0,0,0,0,0,1,0,0,0,0,1,2737,
scooby_state_401a16|22|1 2731,1,1,0,0,0,0,1,0,0,0,2,1,0,0,2737,
scooby_state_401a16|14|1 2734,0,0,0,0,0,0,1,1,0,0,0,0,1,0,2737,
scooby_state_401a3d|1|1 2732,2,1,1,0,0,0,0,0,1,0,0,0,0,0,2737,
scooby_state_401a07|18|1 2733,1,0,1,0,0,0,1,0,1,0,0,0,0,0,2737,
scooby_state_4019f7|58|1 2733,0,0,1,0,1,0,0,0,0,0,0,0,2,0,2737,
scooby_state_4019f7|9|1 2732,0,0,1,0,0,0,1,1,1,0,0,0,1,0,2737,
scooby_state_4019f7|6|1 2733,0,0,0,0,0,0,0,1,1,1,1,0,0,0,2737,
scooby_state_401a3d|11|1 2727,1,1,1,4,0,0,1,0,0,1,0,0,0,1,2737,
scooby_state_401a3d|2|1 2733,0,0,0,0,0,1,0,0,0,1,0,2,0,0,2737,
scooby_state_401a54|14|1 2730,0,0,0,1,0,0,2,0,0,0,0,3,0,1,2737,
scooby_state_4019f7|0|0 2729,1,0,1,0,0,0,0,0,1,1,2,0,0,2,2737,
scooby_state_4019f7|23|1 2732,0,1,0,1,0,0,0,0,0,0,0,1,2,0,2737,
scooby_state_401a07|10|1 2736,0,0,0,0,0,0,0,0,0,1,0,0,0,0,2737,
scooby_state_401a54|12|1 2730,1,0,0,0,2,0,2,0,0,0,1,1,0,0,2737,
scooby_state_401a54|57|1 2731,0,0,0,2,1,0,0,1,0,1,0,1,0,0,2737,
scooby_state_401a3d|59|1 2735,0,1,0,0,1,0,0,0,0,0,0,0,0,0,2737,
scooby_state_401a16|10|1 2733,0,0,1,0,0,0,1,0,0,0,0,0,2,0,2737,
scooby_state_401a54|24|1 2732,0,1,0,1,0,0,1,1,0,0,1,0,0,0,2737,
scooby_state_401a26|59|1 2733,0,1,0,0,0,0,1,0,0,1,1,0,0,0,2737,
scooby_state_401a54|61|1 2730,1,0,0,0,2,1,0,2,0,1,0,0,0,0,2737,
scooby_state_4019f7|61|1 2730,1,0,0,1,0,0,0,0,1,1,1,0,1,1,2737,
scooby_state_401a16|15|1 2730,1,1,0,0,0,0,0,1,0,0,1,1,1,1,2737,
scooby_state_4019f7|13|1 2730,1,0,1,1,1,0,0,0,0,1,0,1,1,0,2737,
scooby_state_401a07|3|1 2730,0,1,1,1,2,0,0,0,0,0,0,1,1,0,2737,
scooby_state_401a3d|10|1 2731,0,2,0,1,0,0,1,2,0,0,0,0,0,0,2737,
scooby_state_401a26|3|1 2733,0,0,0,0,0,0,0,0,2,0,0,1,0,1,2737,
scooby_state_401a07|59|1 2731,0,0,0,0,0,2,0,0,0,2,0,1,0,1,2737,
scooby_state_401a26|7|1 2734,0,0,0,1,0,0,1,0,1,0,0,0,0,0,2737,
scooby_state_401a54|0|0 2735,0,0,0,1,0,0,0,0,1,0,0,0,0,0,2737,
scooby_state_4019e0|23|1 2731,1,0,0,0,1,0,1,1,0,0,1,0,0,1,2737,
scooby_state_401a54|8|1 2735,0,0,1,0,0,0,0,0,0,0,0,0,0,1,2737,
scooby_state_4019e0|22|1 2734,1,0,1,0,0,0,0,0,0,1,0,0,0,0,2737,
scooby_state_401a26|19|1 2728,1,2,0,0,0,2,1,0,1,0,1,0,0,1,2737,
scooby_state_401a16|58|1 2727,0,2,1,1,2,0,1,0,0,0,0,1,0,2,2737,
scooby_state_401a26|58|1 2735,0,0,1,0,0,0,0,0,0,0,1,0,0,0,2737,
scooby_state_401a3d|17|1 2733,0,0,1,0,0,1,0,0,0,0,0,1,0,1,2737,
scooby_state_401a3d|12|1 2734,0,0,0,0,1,1,0,0,0,1,0,0,0,0,2737,
scooby_state_401a54|62|1 2731,1,3,0,1,0,0,1,0,0,0,0,0,0,0,2737,
scooby_state_401a54|58|1 2731,0,2,2,1,0,0,0,0,0,0,0,0,0,1,2737,
scooby_state_401a54|13|1 2737,0,0,0,0,0,0,0,0,0,0,0,0,0,0,2737,
scooby_state_401a3d|62|1 2732,0,1,0,0,0,0,1,0,1,2,0,0,0,0,2737,
scooby_state_401a07|11|1 2734,0,1,0,0,0,1,0,0,0,0,0,0,1,0,2737,
scooby_state_401a26|12|1 2734,1,0,2,0,0,0,0,0,0,0,0,0,0,0,2737,
scooby_state_401a54|23|1 2735,0,0,0,0,0,0,0,1,1,0,0,0,0,0,2737,
scooby_state_401a26|10|1 2732,1,0,0,2,0,1,1,0,0,0,0,0,0,0,2737,
scooby_state_4019e0|24|1 2734,0,0,1,0,1,0,0,0,0,1,0,0,0,0,2737,
scooby_state_401a26|6|1 2731,0,0,0,0,0,1,2,1,0,1,1,0,0,0,2737,
scooby_state_401a26|13|1 2732,1,0,1,1,0,0,0,0,0,1,0,1,0,0,2737,
scooby_state_401a26|63|1 2732,0,0,0,2,1,0,1,0,0,0,0,0,1,0,2737,
scooby_state_401a54|59|1 2728,1,1,2,0,1,1,2,0,0,0,0,1,0,0,2737,
scooby_state_401a07|61|1 2729,0,0,0,0,0,0,0,3,2,1,0,1,1,0,2737,
scooby_state_401a54|1|1 2734,0,0,0,0,0,1,0,0,1,0,1,0,0,0,2737,
scooby_state_4019e0|59|1 2730,1,0,2,0,0,0,0,0,2,1,1,0,0,0,2737,
scooby_state_401a3d|0|0 2736,0,0,0,0,0,0,0,0,1,0,0,0,0,0,2737,
scooby_state_401a54|60|1 2732,0,1,0,1,0,0,0,1,0,1,1,0,0,0,2737,
scooby_state_401a16|11|1 2733,1,1,1,0,1,0,0,0,0,0,0,0,0,0,2737,
scooby_state_401a07|14|1 2736,0,0,0,0,0,0,0,1,0,0,0,0,0,0,2737,
scooby_state_401a26|57|1 2732,0,1,1,0,0,0,0,0,0,1,1,1,0,0,2737,
scooby_state_4019e0|2|1 2730,0,1,0,0,1,0,1,0,0,1,1,0,2,0,2737,
scooby_state_4019e0|14|1 2733,0,0,0,0,1,0,1,0,0,0,1,0,0,1,2737,
scooby_state_401a26|4|1 2733,0,0,0,0,1,0,1,0,0,1,0,0,1,0,2737,
scooby_state_401a26|1|1 2726,0,1,0,1,2,1,0,1,0,0,1,0,2,2,2737,
scooby_state_401a26|11|1 2728,2,0,2,1,0,0,0,1,1,2,0,0,0,0,2737,
scooby_state_401a26|2|1 2730,1,1,0,0,1,1,0,0,0,1,1,0,0,1,2737,
scooby_state_401a3d|7|1 2731,0,1,1,0,2,1,0,0,0,0,0,0,0,1,2737,
scooby_state_401a3d|14|1 2731,1,0,0,1,1,0,1,0,1,1,0,0,0,0,2737,
scooby_state_401a3d|13|1 2736,0,0,0,0,0,0,0,0,0,0,0,0,0,1,2737,
scooby_state_401a07|62|1 2734,0,0,0,0,0,0,0,0,2,0,0,1,0,0,2737,
scooby_state_401a26|18|1 2735,0,0,0,0,0,1,0,1,0,0,0,0,0,0,2737,
scooby_state_401a3d|61|1 2734,0,0,0,1,0,0,1,0,0,0,0,0,1,0,2737,
scooby_state_401a16|40|1 2733,1,0,0,0,0,1,0,0,0,0,0,0,0,1,2736,
scooby_state_4019e0|61|1 2732,0,0,0,1,0,0,0,1,0,0,0,0,1,1,2736,
scooby_state_401a07|5|1 2731,1,0,1,0,0,1,0,0,1,0,0,0,1,0,2736,
scooby_state_401a3d|15|1 2728,1,0,2,0,1,0,1,0,0,0,1,0,1,1,2736,
scooby_state_401a26|51|1 2724,1,1,0,0,1,1,1,2,2,0,1,0,1,1,2736,
scooby_state_401a07|26|1 2733,0,0,0,0,0,0,1,0,0,1,0,0,1,0,2736,
scooby_state_401a3d|25|1 2726,0,1,1,1,0,1,1,1,0,1,1,0,0,2,2736,
scooby_state_4019e0|57|1 2731,0,0,0,2,0,0,0,0,0,1,0,1,0,1,2736,
scooby_state_401a16|51|1 2735,0,0,0,1,0,0,0,0,0,0,0,0,0,0,2736,
scooby_state_401a54|56|1 2732,0,0,0,1,0,0,2,0,1,0,0,0,0,0,2736,
scooby_state_401a26|5|1 2731,0,1,0,1,0,0,0,0,1,1,0,1,0,0,2736,
scooby_state_401a54|44|1 2734,0,0,0,0,0,0,0,0,0,0,1,0,1,0,2736,
scooby_state_401a16|16|1 2732,0,0,0,0,1,0,0,0,0,0,1,0,0,2,2736,
scooby_state_401a54|38|1 2732,0,1,0,0,0,0,0,0,1,0,0,1,0,1,2736,
scooby_state_401a26|54|1 2730,0,0,1,0,0,0,1,1,2,0,0,0,1,0,2736,
scooby_state_401a3d|42|1 2732,0,0,0,1,1,0,1,0,0,0,0,0,0,1,2736,
scooby_state_401a3d|54|1 2731,0,0,1,0,0,2,0,0,1,0,0,0,1,0,2736,
scooby_state_401a54|27|1 2735,0,0,0,0,0,0,0,0,0,1,0,0,0,0,2736,
scooby_state_401a26|49|1 2732,0,0,2,0,0,0,0,0,0,0,0,1,1,0,2736,
scooby_state_4019e0|28|1 2734,1,0,0,0,0,0,1,0,0,0,0,0,0,0,2736,
scooby_state_401a16|9|1 2731,0,1,0,1,1,0,1,1,0,0,0,0,0,0,2736,
scooby_state_401a3d|40|1 2732,0,0,0,0,1,0,0,0,0,0,1,0,1,1,2736,
scooby_state_401a3d|5|1 2727,1,0,0,0,1,3,1,0,0,0,0,2,0,1,2736,
scooby_state_401a07|20|1 2735,0,0,0,0,0,0,1,0,0,0,0,0,0,0,2736,
scooby_state_4019e0|40|1 2734,0,0,0,0,1,0,0,0,0,0,0,0,0,1,2736,
scooby_state_401a07|46|1 2728,0,1,0,1,0,1,2,0,0,1,0,0,1,1,2736,
scooby_state_4019f7|27|1 2734,0,0,0,0,0,1,0,0,0,0,0,0,1,0,2736,
scooby_state_401a07|63|1 2731,0,0,0,2,1,1,1,0,0,0,0,0,0,0,2736,
scooby_state_401a16|39|1 2733,1,0,0,0,0,0,0,0,0,0,0,1,1,0,2736,
scooby_state_401a16|48|1 2733,0,0,0,0,0,1,0,1,0,0,1,0,0,0,2736,
scooby_state_401a26|50|1 2729,2,0,0,0,3,0,0,0,0,0,1,0,0,1,2736,
scooby_state_401a3d|26|1 2734,1,0,0,0,0,0,0,0,0,0,0,0,0,1,2736,
scooby_state_401a16|18|1 2729,0,0,0,0,1,1,0,2,1,0,0,2,0,0,2736,
scooby_state_401a54|30|1 2731,0,0,0,2,0,0,0,1,0,0,1,1,0,0,2736,
scooby_state_401a16|20|1 2733,0,0,0,0,1,0,0,0,1,1,0,0,0,0,2736,
scooby_state_4019e0|42|1 2732,0,0,2,0,0,0,0,0,0,0,1,1,0,0,2736,
scooby_state_401a3d|56|1 2732,0,0,0,1,0,0,0,0,1,1,0,1,0,0,2736,
scooby_state_401a26|39|1 2734,0,0,0,0,1,0,0,0,0,0,0,0,1,0,2736,
scooby_state_401a07|51|1 2730,0,0,0,0,0,1,1,2,0,0,0,0,1,1,2736,
scooby_state_401a26|41|1 2731,1,0,0,0,0,0,1,1,0,0,0,1,1,0,2736,
scooby_state_4019f7|45|1 2733,1,0,0,1,0,0,0,0,0,0,0,0,1,0,2736,
scooby_state_401a07|25|1 2733,1,0,0,0,0,0,1,1,0,0,0,0,0,0,2736,
scooby_state_401a3d|21|1 2728,1,0,0,0,1,0,1,0,0,0,1,2,2,0,2736,
scooby_state_401a3d|16|1 2725,1,2,0,0,1,2,0,0,0,2,0,1,0,2,2736,
scooby_state_401a16|30|1 2733,0,0,0,0,0,0,0,0,0,1,0,0,1,1,2736,
scooby_state_401a3d|63|1 2732,2,1,0,0,0,0,0,0,0,1,0,0,0,0,2736,
scooby_state_401a16|49|1 2732,0,1,0,0,0,0,0,0,0,1,0,1,1,0,2736,
scooby_state_401a3d|55|1 2733,0,1,0,0,0,1,0,1,0,0,0,0,0,0,2736,
scooby_state_4019e0|49|1 2732,1,0,1,0,1,0,0,0,1,0,0,0,0,0,2736,
scooby_state_4019f7|25|1 2735,0,0,0,0,0,0,0,0,0,0,0,0,1,0,2736,
scooby_state_4019e0|56|1 2727,1,0,0,1,2,1,0,0,2,0,1,0,0,1,2736,
scooby_state_401a07|44|1 2731,0,0,0,0,0,2,0,0,0,0,1,1,1,0,2736,
scooby_state_4019f7|38|1 2730,1,2,1,0,0,0,0,0,0,0,0,0,1,1,2736,
scooby_state_401a07|38|1 2728,0,1,0,0,2,1,0,0,0,1,1,1,1,0,2736,
scooby_state_4019e0|39|1 2731,0,2,0,2,1,0,0,0,0,0,0,0,0,0,2736,
scooby_state_4019f7|29|1 2728,0,1,1,0,1,2,0,0,1,0,1,1,0,0,2736,
scooby_state_401a07|55|1 2727,1,1,0,0,0,3,0,1,0,0,1,0,1,1,2736,
scooby_state_401a54|25|1 2726,0,1,0,1,0,0,0,0,3,0,0,1,3,1,2736,
scooby_state_401a54|26|1 2732,0,0,1,0,0,1,0,1,0,1,0,0,0,0,2736,
scooby_state_401a07|41|1 2731,1,0,0,0,1,0,1,0,0,1,0,0,1,0,2736,
scooby_state_401a26|56|1 2731,0,1,0,0,1,1,0,1,0,0,0,1,0,0,2736,
scooby_state_401a07|39|1 2730,1,1,0,1,0,0,1,0,0,0,0,1,0,1,2736,
scooby_state_4019e0|51|1 2729,0,0,0,1,1,0,1,1,1,0,0,1,0,1,2736,
scooby_state_401a07|28|1 2729,1,0,1,0,1,0,2,0,1,0,0,0,0,1,2736,
scooby_state_401a16|28|1 2733,0,0,0,1,0,0,0,0,0,0,1,0,1,0,2736,
scooby_state_401a3d|28|1 2731,0,0,0,0,1,0,0,1,1,1,0,0,1,0,2736,
scooby_state_401a07|56|1 2729,1,0,0,0,1,0,0,2,0,2,1,0,0,0,2736,
scooby_state_4019f7|39|1 2729,0,2,0,0,0,0,0,3,0,1,0,0,0,1,2736,
scooby_state_401a07|43|1 2730,1,2,0,0,1,1,0,0,1,0,0,0,0,0,2736,
scooby_state_401a16|29|1 2731,1,1,0,1,0,0,0,1,0,1,0,0,0,0,2736,
scooby_state_401a3d|29|1 2725,1,1,1,2,0,0,2,0,0,0,1,1,1,1,2736,
scooby_state_401a07|27|1 2732,0,0,0,0,0,0,0,0,2,2,0,0,0,0,2736,
scooby_state_401a54|29|1 2730,0,0,0,0,0,0,0,0,3,0,1,1,1,0,2736,
scooby_state_4019e0|30|1 2731,0,0,0,1,0,0,0,0,0,2,0,2,0,0,2736,
scooby_state_401a26|15|1 2731,0,1,0,0,0,0,0,1,1,0,0,1,1,0,2736,
scooby_state_401a07|30|1 2731,0,0,0,0,0,2,0,0,0,0,2,0,1,0,2736,
scooby_state_4019e0|60|1 2733,1,0,0,0,0,0,0,0,0,0,1,0,0,1,2736,
scooby_state_401a16|41|1 2734,1,0,0,1,0,0,0,0,0,0,0,0,0,0,2736,
scooby_state_4019f7|52|1 2733,0,0,0,0,1,1,0,0,0,0,0,1,0,0,2736,
scooby_state_401a26|26|1 2732,0,0,0,0,0,0,1,0,0,2,0,0,1,0,2736,
scooby_state_401a54|49|1 2730,0,1,0,1,1,1,0,0,1,1,0,0,0,0,2736,
scooby_state_401a26|29|1 2727,1,1,2,0,0,0,2,0,1,0,0,2,0,0,2736,
scooby_state_401a3d|49|1 2731,0,0,0,1,1,1,0,1,0,0,0,0,0,1,2736,
scooby_state_401a16|38|1 2732,1,0,0,0,0,0,0,0,0,1,0,1,0,1,2736,
scooby_state_4019f7|43|1 2731,0,0,0,0,1,0,1,0,1,0,0,2,0,0,2736,
scooby_state_4019e0|50|1 2732,0,0,1,0,0,0,0,0,1,1,1,0,0,0,2736,
scooby_state_4019f7|50|1 2731,0,0,1,1,0,0,0,2,0,0,0,0,1,0,2736,
scooby_state_401a16|50|1 2733,0,1,1,0,1,0,0,0,0,0,0,0,0,0,2736,
scooby_state_401a54|50|1 2732,1,1,0,1,0,0,0,0,0,0,1,0,0,0,2736,
scooby_state_401a07|54|1 2731,0,0,1,0,1,0,0,0,1,0,0,1,1,0,2736,
scooby_state_401a16|60|1 2730,1,0,0,0,0,0,0,1,0,1,0,0,3,0,2736,
scooby_state_401a07|52|1 2731,0,2,1,0,0,0,0,1,0,0,0,1,0,0,2736,
scooby_state_401a3d|30|1 2729,0,2,0,1,0,1,0,1,1,0,0,0,0,1,2736,
scooby_state_4019f7|54|1 2731,0,0,0,2,0,0,0,0,0,0,1,0,2,0,2736,
scooby_state_401a54|43|1 2731,0,0,0,1,0,0,0,1,0,0,0,1,1,1,2736,
scooby_state_401a07|42|1 2732,0,0,1,1,0,1,1,0,0,0,0,0,0,0,2736,
scooby_state_401a54|54|1 2730,0,1,0,0,0,0,0,0,0,2,0,1,1,1,2736,
scooby_state_401a16|24|1 2734,1,0,0,1,0,0,0,0,0,0,0,0,0,0,2736,
scooby_state_401a3d|38|1 2731,0,1,0,0,0,1,1,0,0,0,0,1,1,0,2736,
scooby_state_401a16|42|1 2730,0,1,2,0,0,1,0,0,0,0,1,0,0,1,2736,
scooby_state_401a16|17|1 2734,1,0,0,0,0,0,0,0,0,0,0,1,0,0,2736,
scooby_state_4019e0|45|1 2730,0,1,0,0,0,2,1,0,0,0,0,0,0,2,2736,
scooby_state_401a54|39|1 2733,0,0,0,0,1,0,0,0,0,2,0,0,0,0,2736,
scooby_state_4019e0|41|1 2732,0,1,0,0,0,0,0,0,2,0,1,0,0,0,2736,
scooby_state_401a54|42|1 2732,0,0,0,1,0,1,0,0,0,0,1,0,0,1,2736,
scooby_state_401a26|16|1 2730,0,1,0,2,0,0,1,0,0,0,0,0,1,1,2736,
scooby_state_401a26|27|1 2734,1,0,0,0,0,0,0,0,0,0,0,1,0,0,2736,
scooby_state_4019e0|43|1 2729,0,0,1,1,0,0,0,1,1,2,0,1,0,0,2736,
scooby_state_401a26|43|1 2728,0,1,0,1,0,1,0,2,0,0,2,0,0,1,2736,
scooby_state_4019e0|44|1 2733,0,0,0,0,0,0,1,1,0,0,1,0,0,0,2736,
scooby_state_401a07|45|1 2731,0,0,0,0,2,0,0,1,1,0,1,0,0,0,2736,
scooby_state_4019f7|44|1 2729,0,1,1,1,1,1,0,0,0,0,0,1,0,1,2736,
scooby_state_401a16|44|1 2733,0,0,0,0,0,1,0,1,0,0,0,0,1,0,2736,
scooby_state_4019f7|28|1 2731,0,1,1,0,0,0,0,1,0,0,0,1,0,1,2736,
scooby_state_401a54|45|1 2730,2,0,0,1,1,0,0,0,0,0,0,0,0,2,2736,
scooby_state_401a16|45|1 2729,0,0,2,1,1,1,0,0,1,0,1,0,0,0,2736,
scooby_state_401a26|45|1 2731,1,0,1,1,0,1,0,0,0,0,0,0,1,0,2736,
scooby_state_401a3d|45|1 2732,0,0,0,0,0,1,0,0,0,0,0,1,1,1,2736,
scooby_state_4019e0|46|1 2728,0,0,0,0,0,1,0,1,1,2,0,1,0,2,2736,
scooby_state_4019f7|46|1 2730,1,1,0,1,0,0,2,0,1,0,0,0,0,0,2736,
scooby_state_401a16|46|1 2730,0,0,1,1,0,1,0,0,2,0,1,0,0,0,2736,
scooby_state_401a54|28|1 2730,0,0,0,0,1,3,0,0,0,0,0,1,0,1,2736,
scooby_state_401a3d|27|1 2727,0,1,2,0,0,2,1,1,0,1,0,0,1,0,2736,
scooby_state_401a26|48|1 2734,0,0,0,0,0,0,0,1,0,0,0,0,1,0,2736,
scooby_state_401a26|40|1 2732,0,0,0,1,1,1,0,0,0,0,0,0,1,0,2736,
scooby_state_401a26|44|1 2733,0,0,0,0,0,2,0,0,1,0,0,0,0,0,2736,
scooby_state_401a54|41|1 2730,0,0,0,1,1,1,0,0,0,0,1,1,1,0,2736,
scooby_state_401a07|15|1 2732,1,0,1,0,0,0,1,0,0,0,0,0,1,0,2736,
scooby_state_401a3d|52|1 2730,0,1,0,0,1,0,0,0,0,1,1,0,2,0,2736,
scooby_state_401a16|19|1 2729,0,0,0,2,0,0,1,2,0,0,0,1,1,0,2736,
scooby_state_401a3d|43|1 2730,3,0,0,0,0,0,0,0,1,1,0,1,0,0,2736,
scooby_state_4019e0|11|1 2731,0,0,0,1,0,0,2,0,0,0,1,1,0,0,2736,
scooby_state_4019f7|10|1 2732,0,0,0,0,0,0,0,0,2,1,0,0,1,0,2736,
scooby_state_4019f7|3|1 2732,0,1,0,1,1,0,0,0,0,0,0,1,0,0,2736,
scooby_state_401a07|57|1 2728,0,0,3,0,0,0,0,1,1,1,1,0,0,1,2736,
scooby_state_4019f7|51|1 2731,1,0,0,0,0,1,0,0,1,0,0,2,0,0,2736,
scooby_state_401a26|25|1 2734,0,1,0,0,0,0,0,0,1,0,0,0,0,0,2736,
scooby_state_401a26|28|1 2726,2,1,0,1,0,0,0,0,1,2,0,1,1,1,2736,
scooby_state_401a54|20|1 2732,0,0,0,1,0,0,0,1,0,0,2,0,0,0,2736,
scooby_state_401a54|46|1 2730,0,0,0,0,0,1,0,0,1,3,0,1,0,0,2736,
scooby_state_401a26|46|1 2731,2,0,1,0,0,0,0,0,2,0,0,0,0,0,2736,
scooby_state_401a26|42|1 2730,1,0,0,0,0,2,0,0,2,0,1,0,0,0,2736,
scooby_state_401a07|49|1 2731,0,0,0,0,0,2,0,1,0,0,0,0,2,0,2736,
scooby_state_401a07|50|1 2729,1,0,0,0,2,1,0,0,0,0,1,0,0,2,2736,
scooby_state_401a3d|39|1 2731,1,0,1,1,0,0,0,2,0,0,0,0,0,0,2736,
scooby_state_4019e0|8|1 2734,1,0,0,0,0,0,0,0,1,0,0,0,0,0,2736,
scooby_state_401a26|55|1 2733,0,0,0,0,0,0,0,1,0,0,0,0,1,1,2736,
scooby_state_401a54|55|1 2734,0,0,0,1,0,0,1,0,0,0,0,0,0,0,2736,
scooby_state_401a3d|44|1 2731,1,0,0,0,0,1,1,0,1,0,1,0,0,0,2736,
scooby_state_401a3d|50|1 2730,1,0,0,0,0,1,1,1,0,0,0,1,0,1,2736,
scooby_state_4019e0|29|1 2730,0,0,0,1,0,0,1,0,2,0,1,1,0,0,2736,
scooby_state_4019f7|12|1 2732,1,0,1,0,0,1,0,0,0,0,0,0,1,0,2736,
scooby_state_401a16|43|1 2729,0,1,0,0,1,0,0,0,1,1,2,0,0,1,2736,
scooby_state_401a3d|41|1 2734,0,0,1,0,0,1,0,0,0,0,0,0,0,0,2736,
scooby_state_4019f7|2|1 2730,1,0,0,0,1,1,0,0,1,0,0,1,0,1,2736,
scooby_state_401a54|40|1 2728,0,0,0,1,0,0,1,1,0,1,1,2,1,0,2736,
scooby_state_4019f7|22|1 2734,0,0,0,0,2,0,0,0,0,0,0,0,0,0,2736,
scooby_state_401a07|40|1 2736,0,0,0,0,0,0,0,0,0,0,0,0,0,0,2736,
scooby_state_4019f7|11|1 2729,1,0,0,1,2,0,0,0,0,1,0,1,0,1,2736,
scooby_state_401a3d|46|1 2731,0,0,0,0,0,1,2,0,0,0,1,1,0,0,2736,
scooby_state_401a07|29|1 2732,0,0,1,0,0,0,1,0,0,1,0,1,0,0,2736,
scooby_state_4019f7|26|1 2728,1,1,1,0,0,1,2,1,0,0,0,0,1,0,2736,
scooby_state_401a3d|51|1 2726,0,0,1,0,0,1,0,1,1,1,2,1,1,1,2736,
scooby_state_401a3d|20|1 2730,0,0,0,0,0,0,2,2,1,0,0,1,0,0,2736,
scooby_state_401a26|38|1 2733,2,0,1,0,0,0,0,0,0,0,0,0,0,0,2736,
scooby_state_401a26|30|1 2730,0,0,0,0,1,0,0,0,0,2,2,0,0,1,2736,
scooby_state_401a54|51|1 2734,0,0,0,0,1,0,0,1,0,0,0,0,0,0,2736,
scooby_state_4019f7|42|1 2730,1,1,0,1,0,1,0,0,0,1,0,0,0,0,2735,
scooby_state_401a26|52|1 2728,1,1,0,1,0,1,0,0,1,0,0,1,0,1,2735,
scooby_state_4019e0|10|1 2731,0,0,0,0,0,0,0,1,0,0,1,1,1,0,2735,
scooby_state_4019e0|9|1 2730,1,1,0,0,1,0,0,1,0,0,0,1,0,0,2735,
scooby_state_4019f7|20|1 2733,0,0,0,0,0,1,0,0,0,0,0,0,1,0,2735,
scooby_state_4019e0|55|1 2730,0,0,1,0,1,0,2,0,0,0,0,0,0,1,2735,
scooby_state_401a16|61|1 2731,0,0,0,0,0,0,0,0,1,0,0,1,1,1,2735,
scooby_state_4019f7|55|1 2730,0,0,1,0,0,2,1,0,1,0,0,0,0,0,2735,
scooby_state_401a3d|47|1 2727,1,0,1,2,0,1,0,1,0,0,1,0,0,1,2735,
scooby_state_401a16|5|1 2729,0,2,0,0,0,1,1,0,1,0,1,0,0,0,2735,
scooby_state_4019f7|56|1 2730,0,0,1,0,0,0,0,0,1,0,1,0,2,0,2735,
scooby_state_401a3d|48|1 2734,0,0,0,0,0,0,0,0,1,0,0,0,0,0,2735,
scooby_state_401a07|31|1 2731,0,3,0,0,0,1,0,0,0,0,0,0,0,0,2735,
scooby_state_401a26|53|1 2729,0,1,0,0,0,0,0,1,0,0,2,1,1,0,2735,
scooby_state_401a16|8|1 2729,1,0,0,0,0,0,0,1,2,0,0,1,1,0,2735,
scooby_state_401a16|6|1 2733,0,0,0,0,0,1,0,0,0,0,0,1,0,0,2735,
scooby_state_401a07|53|1 2732,0,0,0,2,0,0,0,0,0,0,0,0,1,0,2735,
scooby_state_401a16|27|1 2730,0,0,0,0,0,1,2,0,0,0,1,1,0,0,2735,
scooby_state_401a3d|53|1 2728,0,0,0,2,1,1,0,1,0,0,0,0,1,1,2735,
scooby_state_4019e0|54|1 2729,0,0,0,0,0,1,3,0,0,0,1,1,0,0,2735,
scooby_state_4019e0|62|1 2732,0,0,0,1,0,0,0,0,0,0,1,1,0,0,2735,
scooby_state_401a07|47|1 2733,0,1,0,0,0,0,0,0,0,1,0,0,0,0,2735,
scooby_state_401a07|16|1 2728,1,0,1,1,2,0,0,0,1,0,0,0,1,0,2735,
scooby_state_401a54|52|1 2730,0,0,0,0,0,1,0,0,0,0,0,1,1,2,2735,
scooby_state_401a16|57|1 2731,2,0,1,0,0,0,0,0,0,0,0,0,1,0,2735,
scooby_state_4019e0|38|1 2732,0,0,0,0,0,0,0,0,1,1,0,0,1,0,2735,
scooby_state_401a16|56|1 2733,0,0,0,0,0,0,0,1,0,0,1,0,0,0,2735,
scooby_state_4019f7|49|1 2731,1,0,0,0,0,0,1,0,0,0,0,0,0,2,2735,
scooby_state_401a16|21|1 2730,0,0,0,0,0,1,1,0,2,0,0,0,0,1,2735,
scooby_state_4019f7|41|1 2731,0,1,0,0,1,0,0,0,0,0,0,1,0,1,2735,
scooby_state_4019f7|57|1 2730,2,1,0,0,1,0,0,0,1,0,0,0,0,0,2735,
scooby_state_401a07|21|1 2727,0,1,1,1,0,0,2,1,0,0,2,0,0,0,2735,
scooby_state_4019f7|40|1 2731,0,1,0,1,0,0,0,0,1,0,0,1,0,0,2735,
scooby_state_4019e0|26|1 2731,0,0,0,1,0,0,0,0,1,2,0,0,0,0,2735,
scooby_state_401a26|21|1 2731,0,0,0,0,1,2,0,0,0,1,0,0,0,0,2735,
scooby_state_4019e0|27|1 2729,0,2,1,0,0,0,0,0,0,0,1,0,1,1,2735,
scooby_state_4019e0|25|1 2728,0,0,0,1,1,1,0,0,1,0,2,0,1,0,2735,
scooby_state_4019f7|30|1 2731,0,1,0,1,0,0,1,1,0,0,0,0,0,0,2735,
scooby_state_4019f7|15|1 2728,2,1,0,0,0,0,0,0,0,0,1,0,1,1,2734,
scooby_state_401a54|4|1 2728,0,0,0,1,1,0,0,0,1,0,0,0,1,2,2734,
scooby_state_4019f7|53|1 2731,1,0,0,0,0,0,0,0,1,1,0,0,0,0,2734,
scooby_state_4019e0|16|1 2732,0,0,0,1,0,0,0,0,0,1,0,0,0,0,2734,
scooby_state_401a16|31|1 2729,2,0,0,0,0,1,0,1,0,1,0,0,0,0,2734,
scooby_state_401a16|47|1 2729,1,0,0,0,0,0,0,2,0,1,1,0,0,0,2734,
scooby_state_401a54|15|1 2731,0,0,0,0,1,0,0,0,0,1,1,0,0,0,2734,
scooby_state_4019f7|5|1 2729,0,0,0,0,2,0,1,0,1,0,0,0,1,0,2734,
scooby_state_401a16|54|1 2731,1,0,0,0,0,0,0,1,0,1,0,0,0,0,2734,
scooby_state_401a07|48|1 2729,2,0,0,0,0,1,0,0,0,1,0,1,0,0,2734,
scooby_state_4019f7|63|1 2730,0,1,1,0,0,0,1,0,0,0,0,0,0,1,2734,
scooby_state_401a26|47|1 2731,0,1,0,0,0,0,0,0,0,0,0,0,1,1,2734,
scooby_state_4019e0|15|1 2727,0,0,0,0,1,0,1,0,2,0,0,1,1,1,2734,
scooby_state_401a3d|31|1 2732,1,0,0,0,0,0,0,0,0,0,0,0,0,1,2734,
scooby_state_401a54|16|1 2730,0,0,0,0,0,0,0,1,1,0,1,0,1,0,2734,
scooby_state_401a3d|4|1 2728,1,2,0,1,1,0,0,1,0,0,0,0,0,0,2734,
scooby_state_401a54|48|1 2728,0,0,2,0,0,0,1,0,1,1,0,0,0,1,2734,
scooby_state_401a16|4|1 2727,1,0,0,1,0,0,0,0,0,0,1,0,1,3,2734,
scooby_state_401a16|52|1 2730,0,0,0,1,0,0,0,0,0,0,1,0,1,1,2734,
scooby_state_401a16|7|1 2733,0,0,0,0,0,0,0,0,0,0,1,0,0,0,2734,
scooby_state_401a16|55|1 2727,0,2,1,0,0,0,1,1,0,0,0,1,0,1,2734,
scooby_state_401a07|4|1 2729,0,1,1,0,0,2,1,0,0,0,0,0,0,0,2734,
scooby_state_401a54|63|1 2728,1,0,1,0,0,0,0,0,1,0,2,1,0,0,2734,
scooby_state_401a26|31|1 2730,1,0,1,0,1,0,1,0,0,0,0,0,0,0,2734,
scooby_state_401a16|25|1 2729,1,0,1,1,0,0,1,0,1,0,0,0,0,0,2734,
scooby_state_4019e0|4|1 2730,0,0,0,1,0,0,0,1,1,0,0,0,0,1,2734,
scooby_state_401a54|21|1 2729,0,1,0,0,1,0,0,0,1,1,1,0,0,0,2734,
scooby_state_401a16|63|1 2728,1,1,0,0,0,1,0,0,0,1,1,0,0,1,2734,
scooby_state_401a54|53|1 2729,1,0,0,0,0,0,1,1,0,0,1,1,0,0,2734,
scooby_state_401a16|62|1 2730,0,0,0,0,0,1,1,0,0,0,0,0,1,1,2734,
scooby_state_4019e0|48|1 2732,0,0,1,1,0,0,0,0,0,0,0,0,0,0,2734,
scooby_state_401a54|5|1 2729,0,1,0,0,0,1,0,2,0,1,0,0,0,0,2734,
scooby_state_4019f7|16|1 2730,0,0,0,1,0,0,0,0,0,0,1,0,1,1,2734,
scooby_state_401a16|26|1 2727,0,0,0,1,0,0,2,1,0,1,0,0,0,2,2734,
scooby_state_4019f7|4|1 2730,0,0,1,0,0,0,0,1,0,0,1,0,0,0,2733,
scooby_state_4019e0|47|1 2729,0,0,0,0,2,0,0,1,0,0,0,1,0,0,2733,
scooby_state_4019e0|5|1 2728,0,0,0,0,0,0,2,1,1,0,0,0,0,1,2733,
scooby_state_4019f7|21|1 2728,0,1,0,1,0,1,1,1,0,0,0,0,0,0,2733,
scooby_state_401a54|47|1 2729,1,0,1,0,1,0,0,0,0,0,0,0,0,1,2733,
scooby_state_4019f7|48|1 2729,0,0,0,2,0,0,0,1,0,0,0,1,0,0,2733,
scooby_state_4019e0|63|1 2731,0,0,0,0,0,0,0,0,1,0,0,0,0,1,2733,
scooby_state_401a26|20|1 2731,1,0,0,0,0,0,1,0,0,0,0,0,0,0,2733,
scooby_state_4019e0|52|1 2728,2,0,0,1,0,2,0,0,0,0,0,0,0,0,2733,
scooby_state_4019e0|20|1 2729,2,0,0,0,0,0,0,0,1,0,0,0,0,1,2733,
scooby_state_401a16|53|1 2729,0,1,0,0,0,0,0,0,0,0,0,0,2,0,2732,
scooby_state_4019f7|47|1 2727,0,0,0,1,1,1,0,0,0,0,0,0,0,2,2732,
scooby_state_401a54|31|1 2727,0,0,0,0,1,2,0,1,0,1,0,0,0,0,2732,
scooby_state_4019e0|31|1 2729,0,0,1,0,0,0,0,1,1,0,0,0,0,0,2732,
scooby_state_4019e0|21|1 2726,0,1,1,0,0,0,0,0,0,1,0,2,0,1,2732,
scooby_state_4019e0|53|1 2728,0,0,0,0,0,0,2,1,0,0,0,0,0,0,2731,
scooby_state_4019f7|31|1 2727,0,0,0,0,0,0,0,0,1,0,1,0,0,2,2731,
scooby_state_401a07|37|1 2710,1,0,1,1,0,0,1,0,0,0,1,0,0,1,2716,
scooby_state_4019f7|37|1 2709,1,0,1,0,1,0,1,1,0,0,0,0,0,1,2715,
scooby_state_401a16|37|1 2712,0,0,0,1,0,1,0,0,0,0,0,1,0,0,2715,
scooby_state_401a3d|37|1 2670,1,0,0,0,0,1,0,1,0,0,1,0,0,0,2674,
scooby_state_4019e0|37|1 2656,0,0,0,0,0,0,0,1,1,0,1,0,0,1,2660,
scooby_state_401a07|36|1 2640,0,0,0,0,0,0,1,0,2,2,0,0,1,0,2646,
scooby_state_401a07|35|1 2634,2,0,0,0,0,0,0,0,1,2,0,1,1,0,2641,
scooby_state_401a16|36|1 2634,2,0,0,0,0,1,1,0,0,0,0,0,0,0,2638,
scooby_state_401a07|34|1 2631,0,0,0,0,1,2,0,0,0,0,0,1,0,0,2635,
scooby_state_401a54|37|1 2623,1,0,1,2,1,1,0,1,0,1,1,1,1,0,2634,
scooby_state_401a3d|36|1 2617,0,1,0,0,0,0,0,0,0,0,0,0,1,0,2619,
scooby_state_401a16|35|1 2609,0,0,1,1,0,0,2,0,0,0,1,0,2,0,2616,
scooby_state_401a3d|34|1 2605,0,1,3,1,0,0,1,1,0,0,0,0,0,0,2612,
scooby_state_401a16|34|1 2604,2,0,0,0,0,0,0,1,1,0,0,0,0,0,2608,
scooby_state_401a3d|35|1 2601,0,2,0,1,0,0,0,0,1,0,0,0,0,0,2605,
scooby_state_401a26|35|1 2598,0,1,0,0,0,0,0,0,1,0,1,0,0,1,2602,
scooby_state_401a26|37|1 2590,1,0,1,1,0,0,2,0,0,1,0,1,0,1,2598,
scooby_state_401a26|34|1 2590,0,1,0,0,0,1,3,0,1,0,1,0,0,0,2597,
scooby_state_4019f7|36|1 2578,0,0,0,0,0,1,0,0,1,0,0,0,0,0,2580,
scooby_state_4019f7|34|1 2558,1,0,0,0,0,0,1,0,0,0,0,0,0,0,2560,
scooby_state_401a26|36|1 2543,0,1,1,0,0,0,0,0,1,0,0,0,0,1,2547,
scooby_state_401a54|34|1 2525,0,2,0,0,2,0,1,1,0,0,1,0,2,0,2534,
scooby_state_401a54|36|1 2528,0,0,0,1,0,0,0,0,1,0,1,0,0,0,2531,
scooby_state_4019e0|34|1 2529,0,0,0,0,0,1,0,0,0,1,0,0,0,0,2531,
scooby_state_401a54|35|1 2522,0,0,0,0,1,0,0,2,0,0,1,0,0,1,2527,
scooby_state_4019f7|35|1 2522,1,1,0,0,1,1,0,0,0,0,0,0,0,0,2526,
scooby_state_4019e0|35|1 2511,0,0,2,2,0,0,0,1,0,0,0,0,0,0,2516,
scooby_state_4019e0|36|1 2511,2,0,0,0,0,0,1,1,0,0,0,0,0,0,2515,
scooby_state_4019fd|32|1 1001,1,0,0,0,0,0,0,0,0,0,0,0,0,0,1002,
scooby_state_4019e0|31|0 772,1,0,0,0,0,0,0,0,0,1,0,0,0,0,774,
scooby_state_4019fd|33|0 734,0,1,0,0,0,0,0,0,0,0,0,0,0,0,735,
scooby_state_4019fd|33|1 682,1,0,0,0,0,0,0,1,0,0,0,0,0,0,684,
scooby_state_4019e0|31|-1 678,0,0,0,0,0,0,0,0,0,0,0,0,0,0,678,
scooby_state_401a0d|34|1 598,0,0,0,0,0,0,0,0,1,0,0,0,0,0,599,
scooby_state_401950|33|0 566,0,0,0,0,0,0,0,0,0,1,0,0,0,0,567,
scooby_state_4019fd|40|1 563,0,0,0,0,0,0,1,0,0,0,0,0,0,0,564,
scooby_state_4019fd|26|1 559,1,0,1,0,1,0,0,0,0,0,0,0,0,0,562,
scooby_state_4019fd|37|1 562,0,0,0,0,0,0,0,0,0,0,0,0,0,0,562,
scooby_state_4019fd|25|1 561,0,0,0,0,0,0,0,0,0,0,0,0,0,0,561,
scooby_state_4019fd|29|1 560,0,0,0,0,0,0,0,0,0,0,0,0,0,0,560,
scooby_state_4019fd|30|1 558,0,0,0,0,0,1,0,0,0,0,0,0,0,0,559,
scooby_state_4019fd|39|1 559,0,0,0,0,0,0,0,0,0,0,0,0,0,0,559,
scooby_state_4019fd|38|1 557,0,0,0,0,0,0,0,0,1,0,1,0,0,0,559,
scooby_state_4019fd|31|1 558,0,0,0,0,0,0,0,0,0,0,0,0,0,0,558,
scooby_state_4019fd|35|1 553,1,0,0,1,0,0,0,0,0,0,1,2,0,0,558,
scooby_state_4019fd|28|1 558,0,0,0,0,0,0,0,0,0,0,0,0,0,0,558,
scooby_state_4019fd|27|1 557,0,0,1,0,0,0,0,0,0,0,0,0,0,0,558,
scooby_state_4019fd|36|1 557,0,0,0,0,0,0,0,0,0,0,0,0,0,0,557,
scooby_state_4019fd|34|1 555,0,0,0,0,0,0,0,0,0,0,0,0,0,0,555,
scooby_state_401a0d|2|1 551,0,0,0,0,0,0,0,0,0,0,0,0,0,0,551,
scooby_state_401a0d|18|1 549,0,0,0,0,0,0,0,0,0,0,0,0,0,0,549,
scooby_state_401a5c|37|1 547,0,0,0,0,0,0,0,0,0,1,0,0,0,0,548,
scooby_state_401a0d|10|1 547,0,0,0,0,0,0,0,0,1,0,0,0,0,0,548,
scooby_state_401a5c|41|1 548,0,0,0,0,0,0,0,0,0,0,0,0,0,0,548,
scooby_state_401a1c|12|1 548,0,0,0,0,0,0,0,0,0,0,0,0,0,0,548,
scooby_state_401a0d|14|1 547,1,0,0,0,0,0,0,0,0,0,0,0,0,0,548,
scooby_state_401a1c|13|1 547,0,0,0,0,0,0,1,0,0,0,0,0,0,0,548,
scooby_state_401a1c|10|1 547,0,1,0,0,0,0,0,0,0,0,0,0,0,0,548,
scooby_state_401a1c|8|1 548,0,0,0,0,0,0,0,0,0,0,0,0,0,0,548,
scooby_state_401a1c|9|1 547,0,0,0,0,0,0,0,1,0,0,0,0,0,0,548,
scooby_state_401a0d|27|1 546,0,0,0,1,0,0,0,0,1,0,0,0,0,0,548,
scooby_state_401a5c|51|1 548,0,0,0,0,0,0,0,0,0,0,0,0,0,0,548,
scooby_state_401a0d|1|1 548,0,0,0,0,0,0,0,0,0,0,0,0,0,0,548,
scooby_state_401a5c|39|1 546,0,0,0,1,0,0,0,0,0,0,0,0,0,1,548,
scooby_state_401a1c|11|1 548,0,0,0,0,0,0,0,0,0,0,0,0,0,0,548,
scooby_state_401a5c|34|1 547,0,0,0,0,0,0,0,0,0,0,1,0,0,0,548,
scooby_state_401a1c|7|1 546,0,0,0,0,0,2,0,0,0,0,0,0,0,0,548,
scooby_state_401a1c|5|1 547,0,0,0,0,0,0,1,0,0,0,0,0,0,0,548,
scooby_state_401a5c|48|1 548,0,0,0,0,0,0,0,0,0,0,0,0,0,0,548,
scooby_state_401a1c|17|1 548,0,0,0,0,0,0,0,0,0,0,0,0,0,0,548,
scooby_state_401a5c|47|1 548,0,0,0,0,0,0,0,0,0,0,0,0,0,0,548,
scooby_state_401a0d|29|1 547,0,0,0,0,0,0,0,0,0,1,0,0,0,0,548,
scooby_state_401a0d|32|1 547,1,0,0,0,0,0,0,0,0,0,0,0,0,0,548,
scooby_state_401a1c|16|1 548,0,0,0,0,0,0,0,0,0,0,0,0,0,0,548,
scooby_state_401a1c|20|1 547,0,0,0,0,0,0,0,1,0,0,0,0,0,0,548,
scooby_state_401a5c|43|1 547,0,0,0,1,0,0,0,0,0,0,0,0,0,0,548,
scooby_state_401a1c|18|1 546,0,0,0,0,0,1,0,0,0,0,0,1,0,0,548,
scooby_state_401a0d|13|1 547,0,0,0,0,0,0,0,0,1,0,0,0,0,0,548,
scooby_state_401a1c|15|1 548,0,0,0,0,0,0,0,0,0,0,0,0,0,0,548,
scooby_state_401a5c|33|1 546,0,0,0,0,0,0,0,0,0,0,1,0,1,0,548,
scooby_state_401a0d|11|1 546,0,0,0,0,0,0,0,0,0,0,1,0,0,1,548,
scooby_state_401a1c|19|1 548,0,0,0,0,0,0,0,0,0,0,0,0,0,0,548,
scooby_state_401a0d|30|1 548,0,0,0,0,0,0,0,0,0,0,0,0,0,0,548,
scooby_state_401a0d|6|1 547,0,0,0,0,0,0,0,0,0,1,0,0,0,0,548,
scooby_state_401a0d|7|1 548,0,0,0,0,0,0,0,0,0,0,0,0,0,0,548,
scooby_state_401a5c|42|1 548,0,0,0,0,0,0,0,0,0,0,0,0,0,0,548,
scooby_state_401a0d|8|1 547,0,0,0,0,0,0,1,0,0,0,0,0,0,0,548,
scooby_state_401a1c|3|1 548,0,0,0,0,0,0,0,0,0,0,0,0,0,0,548,
scooby_state_401a1c|14|1 548,0,0,0,0,0,0,0,0,0,0,0,0,0,0,548,
scooby_state_401a0d|12|1 548,0,0,0,0,0,0,0,0,0,0,0,0,0,0,548,
scooby_state_401a5c|50|1 547,0,0,0,0,0,0,0,0,0,0,0,1,0,0,548,
scooby_state_401a0d|28|1 548,0,0,0,0,0,0,0,0,0,0,0,0,0,0,548,
scooby_state_401a1c|4|1 548,0,0,0,0,0,0,0,0,0,0,0,0,0,0,548,
scooby_state_401a5c|44|1 547,0,0,0,0,0,0,1,0,0,0,0,0,0,0,548,
scooby_state_401a5c|52|1 547,0,0,1,0,0,0,0,0,0,0,0,0,0,0,548,
scooby_state_401a5c|46|1 546,0,1,0,0,1,0,0,0,0,0,0,0,0,0,548,
scooby_state_401a0d|16|1 548,0,0,0,0,0,0,0,0,0,0,0,0,0,0,548,
scooby_state_401a1c|21|1 548,0,0,0,0,0,0,0,0,0,0,0,0,0,0,548,
scooby_state_401a5c|36|1 547,0,0,0,0,0,0,0,0,0,0,1,0,0,0,548,
scooby_state_401a0d|0|0 547,0,0,0,1,0,0,0,0,0,0,0,0,0,0,548,
scooby_state_401a0d|9|1 546,0,0,0,0,0,0,1,0,0,0,0,0,0,1,548,
scooby_state_401a5c|40|1 548,0,0,0,0,0,0,0,0,0,0,0,0,0,0,548,
scooby_state_401a5c|38|1 548,0,0,0,0,0,0,0,0,0,0,0,0,0,0,548,
scooby_state_401a5c|49|1 547,0,0,1,0,0,0,0,0,0,0,0,0,0,0,548,
scooby_state_401a5c|45|1 548,0,0,0,0,0,0,0,0,0,0,0,0,0,0,548,
scooby_state_401a1c|6|1 548,0,0,0,0,0,0,0,0,0,0,0,0,0,0,548,
scooby_state_401a0d|5|1 548,0,0,0,0,0,0,0,0,0,0,0,0,0,0,548,
scooby_state_401a5c|35|1 547,1,0,0,0,0,0,0,0,0,0,0,0,0,0,548,
scooby_state_401a5c|30|1 546,0,0,0,0,0,0,0,0,0,1,0,0,0,0,547,
scooby_state_401a1c|0|0 547,0,0,0,0,0,0,0,0,0,0,0,0,0,0,547,
scooby_state_401a5c|31|1 545,0,0,0,1,0,0,0,0,0,0,0,0,0,1,547,
scooby_state_401a5c|26|1 546,0,0,0,1,0,0,0,0,0,0,0,0,0,0,547,
scooby_state_401a5c|28|1 547,0,0,0,0,0,0,0,0,0,0,0,0,0,0,547,
scooby_state_401a5c|27|1 545,0,0,1,1,0,0,0,0,0,0,0,0,0,0,547,
scooby_state_401a0d|21|1 546,0,0,0,0,0,0,0,0,0,0,0,0,0,1,547,
scooby_state_401a0d|25|1 546,0,0,0,0,0,0,0,0,0,1,0,0,0,0,547,
scooby_state_401a0d|26|1 547,0,0,0,0,0,0,0,0,0,0,0,0,0,0,547,
scooby_state_401a5c|32|1 546,0,0,0,0,0,0,0,0,0,0,1,0,0,0,547,
scooby_state_401a1c|40|1 546,0,0,0,0,0,0,0,0,1,0,0,0,0,0,547,
scooby_state_401a0d|22|1 544,0,1,0,0,1,0,0,0,0,0,1,0,0,0,547,
scooby_state_401a1c|35|1 546,0,0,0,0,0,0,0,1,0,0,0,0,0,0,547,
scooby_state_401a1c|34|1 547,0,0,0,0,0,0,0,0,0,0,0,0,0,0,547,
scooby_state_401a5c|55|1 547,0,0,0,0,0,0,0,0,0,0,0,0,0,0,547,
scooby_state_401a1c|25|1 546,0,0,1,0,0,0,0,0,0,0,0,0,0,0,547,
scooby_state_401a0d|17|1 545,0,0,0,0,0,0,0,1,0,0,1,0,0,0,547,
scooby_state_401a0d|36|1 547,0,0,0,0,0,0,0,0,0,0,0,0,0,0,547,
scooby_state_401a0d|4|1 546,0,0,1,0,0,0,0,0,0,0,0,0,0,0,547,
scooby_state_401a1c|26|1 546,1,0,0,0,0,0,0,0,0,0,0,0,0,0,547,
scooby_state_401a0d|3|1 547,0,0,0,0,0,0,0,0,0,0,0,0,0,0,547,
scooby_state_401a1c|32|1 547,0,0,0,0,0,0,0,0,0,0,0,0,0,0,547,
scooby_state_401a5c|57|1 546,0,0,1,0,0,0,0,0,0,0,0,0,0,0,547,
scooby_state_401a1c|39|1 546,0,0,0,0,0,0,0,0,0,0,0,0,0,1,547,
scooby_state_401a1c|38|1 547,0,0,0,0,0,0,0,0,0,0,0,0,0,0,547,
scooby_state_401a5c|29|1 547,0,0,0,0,0,0,0,0,0,0,0,0,0,0,547,
scooby_state_401a1c|36|1 546,0,0,0,0,0,0,0,0,0,0,0,0,0,1,547,
scooby_state_401a1c|31|1 545,0,0,0,1,0,0,0,0,0,0,0,1,0,0,547,
scooby_state_401a1c|33|1 546,0,0,0,0,0,0,0,1,0,0,0,0,0,0,547,
scooby_state_401a5c|63|1 547,0,0,0,0,0,0,0,0,0,0,0,0,0,0,547,
scooby_state_401a5c|62|1 545,0,0,1,0,0,0,0,0,0,0,0,0,0,1,547,
scooby_state_401a0d|33|1 546,0,0,0,0,0,0,0,0,1,0,0,0,0,0,547,
scooby_state_401a1c|28|1 545,0,0,0,0,0,0,0,0,2,0,0,0,0,0,547,
scooby_state_401a5c|59|1 547,0,0,0,0,0,0,0,0,0,0,0,0,0,0,547,
scooby_state_401a5c|60|1 544,0,0,0,0,1,0,0,0,0,1,0,0,1,0,547,
scooby_state_401a5c|61|1 544,0,0,1,0,0,1,0,1,0,0,0,0,0,0,547,
scooby_state_401a1c|30|1 547,0,0,0,0,0,0,0,0,0,0,0,0,0,0,547,
scooby_state_401a1c|27|1 546,0,0,0,0,0,0,0,1,0,0,0,0,0,0,547,
scooby_state_401a5c|56|1 544,0,0,0,0,0,1,0,0,0,1,0,1,0,0,547,
scooby_state_401a1c|29|1 547,0,0,0,0,0,0,0,0,0,0,0,0,0,0,547,
scooby_state_401a5c|58|1 546,0,0,0,0,0,1,0,0,0,0,0,0,0,0,547,
scooby_state_401a1c|1|1 545,0,0,0,0,1,0,1,0,0,0,0,0,0,0,547,
scooby_state_401a1c|24|1 545,1,0,0,0,0,1,0,0,0,0,0,0,0,0,547,
scooby_state_401a5c|25|1 546,0,0,0,0,0,0,0,0,1,0,0,0,0,0,547,
scooby_state_401a5c|54|1 546,1,0,0,0,0,0,0,0,0,0,0,0,0,0,547,
scooby_state_401a1c|22|1 546,0,0,0,1,0,0,0,0,0,0,0,0,0,0,547,
scooby_state_401a5c|53|1 545,0,0,0,0,0,0,0,0,1,0,0,1,0,0,547,
scooby_state_401a0d|37|1 545,0,0,1,0,0,0,1,0,0,0,0,0,0,0,547,
scooby_state_401a1c|23|1 546,1,0,0,0,0,0,0,0,0,0,0,0,0,0,547,
scooby_state_401a0d|39|1 547,0,0,0,0,0,0,0,0,0,0,0,0,0,0,547,
scooby_state_401a1c|2|1 547,0,0,0,0,0,0,0,0,0,0,0,0,0,0,547,
scooby_state_401a0d|23|1 547,0,0,0,0,0,0,0,0,0,0,0,0,0,0,547,
scooby_state_401a0d|38|1 547,0,0,0,0,0,0,0,0,0,0,0,0,0,0,547,
scooby_state_401a1c|37|1 547,0,0,0,0,0,0,0,0,0,0,0,0,0,0,547,
scooby_state_401a0d|24|1 545,0,0,0,0,0,0,1,0,0,0,0,0,0,0,546,
scooby_state_401a5c|24|1 544,0,0,0,0,0,1,0,0,0,0,0,1,0,0,546,
scooby_state_401a0d|19|1 545,0,1,0,0,0,0,0,0,0,0,0,0,0,0,546,
scooby_state_401a0d|20|1 546,0,0,0,0,0,0,0,0,0,0,0,0,0,0,546,
scooby_state_401a0d|31|1 544,0,0,0,0,0,0,0,0,0,0,0,0,0,0,544,
scooby_state_401a0d|15|1 544,0,0,0,0,0,0,0,0,0,0,0,0,0,0,544,
scooby_state_401a5c|15|1 540,0,0,0,0,0,0,0,0,0,0,1,0,0,0,541,
scooby_state_401a5c|1|1 539,0,1,0,0,0,0,0,0,0,1,0,0,0,0,541,
scooby_state_401a1c|41|1 539,0,0,0,0,0,0,0,0,0,0,1,0,0,0,540,
scooby_state_401a5c|12|1 540,0,0,0,0,0,0,0,0,0,0,0,0,0,0,540,
scooby_state_401a1c|58|1 539,0,0,0,1,0,0,0,0,0,0,0,0,0,0,540,
scooby_state_401a5c|3|1 540,0,0,0,0,0,0,0,0,0,0,0,0,0,0,540,
scooby_state_401a5c|2|1 540,0,0,0,0,0,0,0,0,0,0,0,0,0,0,540,
scooby_state_401a5c|16|1 540,0,0,0,0,0,0,0,0,0,0,0,0,0,0,540,
scooby_state_401a5c|14|1 539,0,0,0,0,0,0,0,0,0,0,0,1,0,0,540,
scooby_state_401a5c|13|1 540,0,0,0,0,0,0,0,0,0,0,0,0,0,0,540,
scooby_state_401a5c|17|1 540,0,0,0,0,0,0,0,0,0,0,0,0,0,0,540,
scooby_state_401a5c|5|1 539,0,0,0,0,0,0,0,0,0,0,0,0,0,0,539,
scooby_state_401a1c|42|1 539,0,0,0,0,0,0,0,0,0,0,0,0,0,0,539,
scooby_state_401a5c|10|1 539,0,0,0,0,0,0,0,0,0,0,0,0,0,0,539,
scooby_state_401a5c|18|1 538,0,0,0,1,0,0,0,0,0,0,0,0,0,0,539,
scooby_state_401a1c|44|1 538,0,0,0,0,0,0,1,0,0,0,0,0,0,0,539,
scooby_state_401a5c|20|1 538,0,0,0,0,0,0,0,0,0,1,0,0,0,0,539,
scooby_state_401a1c|57|1 539,0,0,0,0,0,0,0,0,0,0,0,0,0,0,539,
scooby_state_401a1c|59|1 539,0,0,0,0,0,0,0,0,0,0,0,0,0,0,539,
scooby_state_401a5c|9|1 538,0,0,0,0,0,0,0,0,0,0,1,0,0,0,539,
scooby_state_401a1c|56|1 538,0,0,0,0,0,0,0,0,0,0,1,0,0,0,539,
scooby_state_401a5c|19|1 539,0,0,0,0,0,0,0,0,0,0,0,0,0,0,539,
scooby_state_401a5c|6|1 537,0,0,0,0,1,0,1,0,0,0,0,0,0,0,539,
scooby_state_401a1c|55|1 538,0,0,0,0,0,0,0,0,0,1,0,0,0,0,539,
scooby_state_401a5c|4|1 539,0,0,0,0,0,0,0,0,0,0,0,0,0,0,539,
scooby_state_401a1c|60|1 539,0,0,0,0,0,0,0,0,0,0,0,0,0,0,539,
scooby_state_401a5c|11|1 539,0,0,0,0,0,0,0,0,0,0,0,0,0,0,539,
scooby_state_401a1c|43|1 539,0,0,0,0,0,0,0,0,0,0,0,0,0,0,539,
scooby_state_401a5c|22|1 538,0,0,0,0,0,0,0,1,0,0,0,0,0,0,539,
scooby_state_401a5c|8|1 537,1,0,0,0,0,0,0,0,0,0,0,0,0,0,538,
scooby_state_401a5c|23|1 537,0,0,1,0,0,0,0,0,0,0,0,0,0,0,538,
scooby_state_401a1c|61|1 537,0,0,0,0,0,0,0,0,1,0,0,0,0,0,538,
scooby_state_401a5c|21|1 537,1,0,0,0,0,0,0,0,0,0,0,0,0,0,538,
scooby_state_401a1c|62|1 536,1,0,0,0,0,0,0,0,0,0,0,0,1,0,538,
scooby_state_401a43|34|1 535,0,1,0,0,0,0,0,0,2,0,0,0,0,0,538,
scooby_state_401a1c|46|1 537,0,0,0,0,0,0,0,0,0,0,1,0,0,0,538,
scooby_state_401a1c|45|1 537,0,0,0,0,0,1,0,0,0,0,0,0,0,0,538,
scooby_state_401a1c|53|1 537,0,1,0,0,0,0,0,0,0,0,0,0,0,0,538,
scooby_state_401a5c|7|1 537,0,0,0,0,0,0,0,0,1,0,0,0,0,0,538,
scooby_state_401a1c|48|1 538,0,0,0,0,0,0,0,0,0,0,0,0,0,0,538,
scooby_state_401a1c|54|1 537,0,1,0,0,0,0,0,0,0,0,0,0,0,0,538,
scooby_state_401a1c|63|1 537,0,0,0,0,0,0,0,0,1,0,0,0,0,0,538,
scooby_state_401a1c|52|1 534,1,0,0,0,0,0,0,0,0,0,1,0,0,1,537,
scooby_state_401a1c|47|1 536,0,1,0,0,0,0,0,0,0,0,0,0,0,0,537,
scooby_state_401a1c|49|1 536,1,0,0,0,0,0,0,0,0,0,0,0,0,0,537,
scooby_state_401a1c|50|1 537,0,0,0,0,0,0,0,0,0,0,0,0,0,0,537,
scooby_state_401a1c|51|1 535,0,0,0,0,0,1,0,0,1,0,0,0,0,0,537,
scooby_state_401a43|27|1 536,0,0,0,0,0,0,0,0,0,0,0,0,0,0,536,
scooby_state_401a43|28|1 532,2,0,0,0,0,0,0,0,2,0,0,0,0,0,536,
scooby_state_401a43|24|1 535,0,0,0,0,0,0,0,0,0,0,0,0,0,0,535,
scooby_state_401a43|30|1 535,0,0,0,0,0,0,0,0,0,0,0,0,0,0,535,
scooby_state_401a43|31|1 535,0,0,0,0,0,0,0,0,0,0,0,0,0,0,535,
scooby_state_401a43|62|1 533,0,0,0,0,0,0,0,0,0,0,0,1,0,0,534,
scooby_state_401a43|36|1 534,0,0,0,0,0,0,0,0,0,0,0,0,0,0,534,
scooby_state_401a43|57|1 532,0,0,1,0,0,0,0,0,0,0,0,0,0,1,534,
scooby_state_401a43|54|1 532,0,0,0,0,0,0,2,0,0,0,0,0,0,0,534,
scooby_state_401a43|35|1 533,0,0,1,0,0,0,0,0,0,0,0,0,0,0,534,
scooby_state_401a43|25|1 534,0,0,0,0,0,0,0,0,0,0,0,0,0,0,534,
scooby_state_401a43|61|1 530,0,0,0,1,0,0,1,0,0,1,0,0,0,0,533,
scooby_state_401a43|50|1 533,0,0,0,0,0,0,0,0,0,0,0,0,0,0,533,
scooby_state_401a43|29|1 533,0,0,0,0,0,0,0,0,0,0,0,0,0,0,533,
scooby_state_401a0d|61|40 533,0,0,0,0,0,0,0,0,0,0,0,0,0,0,533,
scooby_state_401a43|26|1 532,0,0,0,1,0,0,0,0,0,0,0,0,0,0,533,
scooby_state_401a43|46|1 532,0,0,0,0,0,0,0,0,0,0,1,0,0,0,533,
scooby_state_401a43|32|1 531,0,0,0,0,0,0,1,1,0,0,0,0,0,0,533,
scooby_state_401a43|42|1 533,0,0,0,0,0,0,0,0,0,0,0,0,0,0,533,
scooby_state_401a43|41|1 530,0,0,0,0,0,0,0,0,0,0,0,0,1,1,532,
scooby_state_401a43|43|1 532,0,0,0,0,0,0,0,0,0,0,0,0,0,0,532,
scooby_state_401a43|63|1 532,0,0,0,0,0,0,0,0,0,0,0,0,0,0,532,
scooby_state_401a43|39|1 530,0,0,0,1,0,0,1,0,0,0,0,0,0,0,532,
scooby_state_401a43|47|1 532,0,0,0,0,0,0,0,0,0,0,0,0,0,0,532,
scooby_state_401a43|53|1 530,1,0,0,0,0,1,0,0,0,0,0,0,0,0,532,
scooby_state_401a43|49|1 531,0,0,0,1,0,0,0,0,0,0,0,0,0,0,532,
scooby_state_401a43|38|1 532,0,0,0,0,0,0,0,0,0,0,0,0,0,0,532,
scooby_state_401a43|58|1 530,0,1,0,0,0,0,0,0,0,1,0,0,0,0,532,
scooby_state_401a43|51|1 532,0,0,0,0,0,0,0,0,0,0,0,0,0,0,532,
scooby_state_401a43|60|1 532,0,0,0,0,0,0,0,0,0,0,0,0,0,0,532,
scooby_state_401a5c|0|0 531,0,0,0,0,0,0,0,0,0,0,0,0,0,0,531,
scooby_state_401a43|40|1 530,0,0,0,0,0,0,0,0,0,0,0,0,0,0,530,
scooby_state_401a43|56|1 529,0,0,0,0,0,0,0,0,0,0,0,0,1,0,530,
scooby_state_401a43|48|1 528,0,0,0,0,0,0,0,0,1,0,1,0,0,0,530,
scooby_state_401a43|55|1 530,0,0,0,0,0,0,0,0,0,0,0,0,0,0,530,
scooby_state_401a43|59|1 530,0,0,0,0,0,0,0,0,0,0,0,0,0,0,530,
scooby_state_401a43|45|1 529,0,0,0,0,0,0,1,0,0,0,0,0,0,0,530,
scooby_state_401a43|44|1 529,0,0,0,0,1,0,0,0,0,0,0,0,0,0,530,
scooby_state_401a43|37|1 529,0,0,0,0,0,0,0,0,0,0,0,0,0,0,529,
scooby_state_401a43|52|1 528,0,0,0,0,1,0,0,0,0,0,0,0,0,0,529,
scooby_state_401a43|33|1 529,0,0,0,0,0,0,0,0,0,0,0,0,0,0,529,
scooby_state_401a0d|40|40 528,0,0,0,0,0,1,0,0,0,0,0,0,0,0,529,
scooby_state_4019fd|0|-39 529,0,0,0,0,0,0,0,0,0,0,0,0,0,0,529,
scooby_state_401a0d|56|40 528,0,0,0,0,0,0,0,0,0,0,0,0,0,0,528,
scooby_state_401a0d|63|40 526,0,0,0,0,0,0,0,1,0,0,0,0,0,0,527,
scooby_state_401a0d|62|40 523,0,0,0,0,0,1,0,0,0,0,1,0,0,1,526,
scooby_state_401a0d|55|40 525,0,0,0,0,0,0,0,1,0,0,0,0,0,0,526,
scooby_state_4019fd|24|-39 524,0,0,0,0,0,0,0,0,0,0,1,0,0,0,525,
scooby_state_401a0d|57|40 525,0,0,0,0,0,0,0,0,0,0,0,0,0,0,525,
scooby_state_401a0d|59|40 525,0,0,0,0,0,0,0,0,0,0,0,0,0,0,525,
scooby_state_401a0d|58|40 524,0,0,0,1,0,0,0,0,0,0,0,0,0,0,525,
scooby_state_401a0d|54|40 524,0,0,0,0,0,0,0,0,0,0,0,0,0,0,524,
scooby_state_401a0d|60|40 520,0,0,1,0,0,1,0,0,0,1,0,0,0,0,523,
scooby_state_4019fd|41|1 522,0,0,0,0,0,0,0,0,1,0,0,0,0,0,523,
scooby_state_401a0d|41|40 521,0,0,0,0,0,0,0,0,0,0,0,0,0,0,521,
scooby_state_401a0d|50|40 519,0,0,0,0,0,0,0,0,0,0,0,0,0,1,520,
scooby_state_401a0d|49|40 519,0,0,0,0,0,0,0,0,0,0,0,0,0,0,519,
scooby_state_401a0d|51|40 517,0,0,0,0,0,0,0,0,0,0,0,1,1,0,519,
scooby_state_401a43|11|-41 518,0,0,0,0,0,0,0,0,0,0,0,0,0,0,518,
scooby_state_401a0d|45|40 516,0,0,0,0,0,0,0,0,0,0,0,0,0,1,517,
scooby_state_401a0d|44|40 515,0,0,1,0,0,0,0,0,0,0,0,0,0,0,516,
scooby_state_401a0d|43|40 515,0,0,0,0,0,0,0,0,0,1,0,0,0,0,516,
scooby_state_401a0d|42|40 515,0,0,1,0,0,0,0,0,0,0,0,0,0,0,516,
scooby_state_4019fd|17|-39 515,0,0,0,0,0,0,0,0,0,0,0,0,0,0,515,
scooby_state_401a0d|53|40 515,0,0,0,0,0,0,0,0,0,0,0,0,0,0,515,
scooby_state_401a0d|47|40 512,0,0,0,0,0,0,0,0,0,0,0,0,2,0,514,
scooby_state_4019fd|22|-39 513,0,0,1,0,0,0,0,0,0,0,0,0,0,0,514,
scooby_state_401a0d|48|40 513,0,0,0,0,0,0,0,0,0,0,1,0,0,0,514,
scooby_state_401a0d|52|40 514,0,0,0,0,0,0,0,0,0,0,0,0,0,0,514,
scooby_state_4019fd|16|-39 514,0,0,0,0,0,0,0,0,0,0,0,0,0,0,514,
scooby_state_4019fd|23|-39 510,1,0,0,1,0,0,0,0,1,0,0,0,0,0,513,
scooby_state_4019fd|21|-39 510,0,0,0,0,0,0,0,1,0,0,0,0,0,0,511,
scooby_state_4019fd|15|-39 511,0,0,0,0,0,0,0,0,0,0,0,0,0,0,511,
scooby_state_4019fd|18|-39 510,0,0,0,0,0,0,0,0,0,0,0,0,0,0,510,
scooby_state_4019fd|19|-39 509,0,0,0,1,0,0,0,0,0,0,0,0,0,0,510,
scooby_state_4019fd|20|-39 508,0,0,0,0,0,0,0,0,0,0,0,0,0,0,508,
scooby_state_401a0d|46|40 507,0,0,0,0,0,0,0,0,0,0,0,0,0,1,508,
scooby_state_4019fd|1|-39 508,0,0,0,0,0,0,0,0,0,0,0,0,0,0,508,
scooby_state_4019e0|33|0 502,0,1,0,0,0,0,0,0,0,0,0,2,0,0,505,
scooby_state_4019fd|10|-39 503,0,0,0,0,0,0,0,0,0,0,0,0,0,0,503,
scooby_state_4019fd|11|-39 500,0,0,1,0,0,0,0,0,0,0,0,0,0,0,501,
scooby_state_401a43|15|-41 500,0,0,0,1,0,0,0,0,0,0,0,0,0,0,501,
scooby_state_4019fd|14|-39 499,0,0,0,0,0,0,0,0,0,1,0,0,0,0,500,
scooby_state_401a43|20|-41 499,0,0,0,0,0,0,0,0,0,1,0,0,0,0,500,
scooby_state_401a43|19|-41 500,0,0,0,0,0,0,0,0,0,0,0,0,0,0,500,
scooby_state_4019fd|2|-39 499,0,0,0,0,0,0,0,0,0,0,0,0,0,0,499,
scooby_state_401a43|0|-41 497,0,0,0,0,0,0,1,0,0,0,1,0,0,0,499,
scooby_state_401a43|16|-41 497,0,0,0,0,0,0,0,1,0,0,0,0,0,0,498,
scooby_state_4019fd|9|-39 497,0,0,0,0,0,0,1,0,0,0,0,0,0,0,498,
scooby_state_4019fd|4|-39 497,0,0,0,0,0,0,0,0,0,0,0,0,0,0,497,
scooby_state_401a43|17|-41 497,0,0,0,0,0,0,0,0,0,0,0,0,0,0,497,
scooby_state_401a43|1|-41 497,0,0,0,0,0,0,0,0,0,0,0,0,0,0,497,
scooby_state_401a43|8|-41 495,0,0,0,0,0,0,0,0,0,0,0,0,1,0,496,
scooby_state_401a43|3|-41 495,0,0,0,0,0,0,0,0,0,0,0,0,0,0,495,
scooby_state_4019fd|12|-39 495,0,0,0,0,0,0,0,0,0,0,0,0,0,0,495,
scooby_state_401a43|22|-41 494,0,0,0,0,0,0,0,1,0,0,0,0,0,0,495,
scooby_state_401a43|7|-41 495,0,0,0,0,0,0,0,0,0,0,0,0,0,0,495,
scooby_state_4019fd|3|-39 493,0,0,0,1,0,0,0,0,0,0,0,0,0,0,494,
scooby_state_401a43|12|-41 494,0,0,0,0,0,0,0,0,0,0,0,0,0,0,494,
scooby_state_4019fd|5|-39 492,0,0,0,0,0,0,0,1,0,0,1,0,0,0,494,
scooby_state_401a43|13|-41 493,0,0,0,0,0,0,0,0,0,0,0,0,0,0,493,
scooby_state_401a43|5|-41 493,0,0,0,0,0,0,0,0,0,0,0,0,0,0,493,
scooby_state_4019fd|13|-39 493,0,0,0,0,0,0,0,0,0,0,0,0,0,0,493,
scooby_state_401a43|4|-41 491,1,0,0,0,0,0,0,0,0,0,0,0,1,0,493,
scooby_state_4019fd|8|-39 492,0,0,0,0,0,0,0,0,0,0,0,0,0,0,492,
scooby_state_401a43|6|-41 489,0,0,1,0,0,0,1,0,0,0,0,0,0,0,491,
scooby_state_401a43|18|-41 491,0,0,0,0,0,0,0,0,0,0,0,0,0,0,491,
scooby_state_401a43|10|-41 490,0,1,0,0,0,0,0,0,0,0,0,0,0,0,491,
scooby_state_401a43|21|-41 490,0,0,0,0,0,0,0,0,0,0,0,0,0,0,490,
scooby_state_4019fd|7|-39 487,0,0,0,0,0,1,0,0,0,0,0,0,0,1,489,
scooby_state_401a43|2|-41 487,0,0,0,0,1,0,0,0,0,0,0,0,0,0,488,
scooby_state_401a43|9|-41 487,0,0,0,0,0,0,0,0,0,0,0,0,0,0,487,
scooby_state_401a43|14|-41 486,0,0,0,0,0,0,0,0,0,0,0,0,0,0,486,
scooby_state_401a43|23|1 484,0,1,0,0,0,0,0,0,0,0,0,0,0,0,485,
scooby_state_4019fd|6|-39 484,0,0,0,0,0,0,0,0,0,0,0,0,0,0,484,
scooby_state_4019f7|31|0 480,0,0,0,0,0,0,0,0,0,0,0,0,0,0,480,
scooby_state_4019f7|31|-1 478,0,0,1,0,0,0,0,0,0,0,0,0,0,0,479,
scooby_state_4019fd|53|42 474,0,0,0,0,0,0,0,0,0,0,0,0,0,0,474,
scooby_state_4019fd|52|42 471,0,0,0,0,0,0,0,1,0,0,1,0,0,0,473,
scooby_state_4019ec|31|-1 468,0,0,0,0,0,0,0,0,0,0,0,0,0,0,468,
scooby_state_4019fd|61|42 461,0,0,0,0,0,0,0,0,0,0,0,0,0,0,461,
scooby_state_4019fd|57|42 457,0,0,1,0,0,0,0,0,0,0,0,1,0,0,459,
scooby_state_4019fd|42|42 458,0,0,0,0,0,0,0,0,0,0,0,0,0,0,458,
scooby_state_4019fd|49|42 457,0,0,0,0,0,0,0,0,0,0,0,0,0,0,457,
scooby_state_4019fd|60|42 452,0,0,0,0,1,0,0,0,0,0,0,1,0,0,454,
scooby_state_4019fd|48|42 451,1,0,0,0,0,1,0,1,0,0,0,0,0,0,454,
scooby_state_4019fd|56|42 452,0,0,0,0,0,0,0,0,0,0,0,0,0,1,453,
scooby_state_4019fd|58|42 453,0,0,0,0,0,0,0,0,0,0,0,0,0,0,453,
scooby_state_4019fd|62|42 449,0,0,0,0,0,0,0,0,0,1,0,2,0,0,452,
scooby_state_4019fd|45|42 452,0,0,0,0,0,0,0,0,0,0,0,0,0,0,452,
scooby_state_4019fd|59|42 450,0,0,0,0,0,0,0,0,0,0,0,0,0,0,450,
scooby_state_4019fd|63|42 448,0,0,0,0,0,0,0,1,0,0,0,0,0,1,450,
scooby_state_4019fd|47|42 448,0,0,0,1,0,0,0,0,0,0,0,0,0,0,449,
scooby_state_4019fd|46|42 446,1,0,0,0,0,0,0,0,0,0,0,1,0,1,449,
scooby_state_4019fd|44|42 449,0,0,0,0,0,0,0,0,0,0,0,0,0,0,449,
scooby_state_4019fd|54|42 449,0,0,0,0,0,0,0,0,0,0,0,0,0,0,449,
scooby_state_4019fd|50|42 448,0,0,0,0,0,0,0,0,0,0,0,0,0,0,448,
scooby_state_4019fd|55|42 446,0,0,0,0,0,0,0,0,0,0,1,0,0,0,447,
scooby_state_4019fd|51|42 445,0,0,0,0,0,0,0,0,0,0,0,0,0,0,445,
scooby_state_4019fd|43|42 444,0,0,0,0,1,0,0,0,0,0,0,0,0,0,445,
scooby_state_401800|35|1 423,0,0,0,0,0,0,0,0,0,0,0,0,0,0,423,
scooby_state_4019e0|32|0 392,0,0,0,0,0,0,0,0,0,1,0,0,0,0,393,
scooby_state_4019fd|32|0 391,1,0,0,0,0,0,0,0,0,0,0,0,0,0,392,
scooby_state_401a0d|35|1 387,0,0,1,0,0,1,0,0,0,0,0,0,0,0,389,
scooby_state_401a54|31|0 378,0,0,0,0,0,0,0,0,0,0,0,0,0,0,378,
scooby_state_401a54|31|-1 355,0,0,0,0,0,0,0,0,0,0,0,0,0,0,355,
scooby_state_4019e0|32|-1 336,0,0,0,0,0,0,0,0,0,0,0,0,0,0,336,
scooby_state_401a97|33|0 9,294,0,0,0,0,1,0,0,0,0,0,0,0,0,304,
scooby_state_401885|36|1 292,0,1,1,0,0,0,0,0,0,0,0,1,0,0,295,
scooby_state_401ae7|37|4 275,0,0,0,0,0,0,0,0,0,0,0,0,0,0,275,
scooby_state_401a07|31|0 271,0,0,0,0,0,0,0,0,0,0,0,0,0,0,271,
scooby_state_401ae7|37|2 263,0,0,0,0,0,0,0,0,0,0,0,0,0,0,263,
scooby_state_401a2c|31|-1 262,0,0,1,0,0,0,0,0,0,0,0,0,0,0,263,
scooby_state_401aa1|34|1 256,0,0,0,0,0,0,0,0,0,0,0,0,0,0,256,
scooby_state_401a3d|31|0 254,0,0,0,0,0,0,0,0,0,0,0,0,0,0,254,
scooby_state_401a3d|31|-1 247,0,0,0,0,0,0,0,0,0,0,0,0,0,0,247,
scooby_state_401aa1|34|-3 245,0,0,0,0,1,0,0,0,0,0,0,0,0,0,246,
scooby_state_4019f7|33|0 238,1,0,0,0,0,0,0,0,0,0,0,0,0,0,239,
scooby_state_401950|33|1 236,0,0,0,0,0,0,0,0,0,0,0,0,0,0,236,
scooby_state_401a16|31|0 235,0,0,0,0,1,0,0,0,0,0,0,0,0,0,236,
scooby_state_401a0d|33|0 233,0,0,0,0,0,0,0,0,0,0,0,0,0,0,233,
scooby_state_4019ec|31|0 223,1,0,0,0,0,0,0,0,0,0,0,0,0,0,224,
scooby_state_401a26|31|0 224,0,0,0,0,0,0,0,0,0,0,0,0,0,0,224,
scooby_state_401a54|33|0 212,0,1,1,1,0,1,0,0,0,0,0,0,0,0,216,
scooby_state_4019f7|32|0 213,0,0,0,0,0,0,0,0,0,0,0,0,0,0,213,
scooby_state_401885|36|-1 210,0,0,0,0,0,0,0,0,0,0,0,0,0,0,210,
scooby_state_401a0d|33|-1 207,0,0,0,0,0,0,0,0,0,0,0,0,0,0,207,
scooby_state_401a26|33|0 200,0,0,0,0,0,0,0,0,0,0,0,0,0,0,200,
scooby_state_401a54|32|0 198,0,0,0,0,0,0,0,0,0,0,0,0,0,0,198,
scooby_state_4019e0|36|3 193,0,1,0,0,0,0,0,0,0,0,0,0,0,1,195,
scooby_state_4019ec|32|0 193,0,0,0,0,0,0,0,0,0,0,0,0,0,0,193,
scooby_state_401a54|31|-2 183,0,0,0,0,0,0,0,0,0,0,0,0,0,0,183,
scooby_state_401a07|31|-1 179,0,0,0,1,0,0,0,0,0,0,0,0,0,0,180,
scooby_state_4019f7|32|-1 179,0,1,0,0,0,0,0,0,0,0,0,0,0,0,180,
scooby_state_401a54|36|3 180,0,0,0,0,0,0,0,0,0,0,0,0,0,0,180,
scooby_state_401a07|32|0 171,0,0,0,0,0,0,0,0,0,0,0,0,0,0,171,
scooby_state_401a1c|36|0 170,0,0,0,0,0,0,0,0,0,0,0,0,0,0,170,
scooby_state_4019e0|34|2 169,0,0,0,0,0,0,0,0,0,0,0,0,0,0,169,
scooby_state_4019e0|33|-2 168,0,0,0,0,0,0,0,0,0,0,0,0,0,0,168,
scooby_state_401ae7|37|1 167,0,0,0,0,0,0,0,0,0,0,0,0,0,0,167,
scooby_state_401a54|32|-1 164,0,0,0,0,0,0,0,0,0,0,0,0,0,0,164,
scooby_state_401a26|36|3 160,0,0,0,0,0,0,0,0,0,0,0,0,0,0,160,
scooby_state_401a0d|35|2 159,0,0,0,0,0,0,0,0,0,0,0,0,0,0,159,
scooby_state_4019ec|32|1 157,0,0,0,0,0,0,0,0,0,0,0,0,0,0,157,
scooby_state_401950|33|2 156,0,0,0,0,1,0,0,0,0,0,0,0,0,0,157,
scooby_state_401a26|31|-1 155,0,0,0,0,0,0,0,0,0,0,0,0,0,0,155,
scooby_state_4019f7|36|3 151,0,0,0,0,0,0,0,0,0,0,0,0,0,0,151,
scooby_state_401a07|33|0 150,0,0,0,0,0,0,0,0,0,0,0,0,0,0,150,
scooby_state_401a16|32|0 146,0,0,0,0,0,0,0,0,0,0,0,0,0,0,146,
scooby_state_401a16|31|-1 144,0,0,0,0,0,0,0,0,0,0,0,0,0,0,144,
scooby_state_401a26|32|0 142,0,0,0,0,0,0,0,0,0,0,0,0,0,0,142,
scooby_state_4019e0|31|-2 139,0,0,0,0,0,0,0,0,0,0,0,0,0,0,139,
scooby_state_401a26|33|-3 138,0,0,0,0,0,0,0,0,0,0,0,0,0,0,138,
scooby_state_401a3d|32|0 136,0,0,0,0,0,0,0,0,0,0,0,0,0,0,136,
scooby_state_401a26|37|4 136,0,0,0,0,0,0,0,0,0,0,0,0,0,0,136,
scooby_state_401a0d|34|0 135,0,0,0,0,0,0,0,0,0,0,0,0,0,0,135,
scooby_state_4019fd|32|-1 135,0,0,0,0,0,0,0,0,0,0,0,0,0,0,135,
scooby_state_4019fd|33|2 135,0,0,0,0,0,0,0,0,0,0,0,0,0,0,135,
scooby_state_401800|35|-2 132,0,0,0,0,1,0,0,1,0,0,0,0,0,0,134,
scooby_state_4019f7|33|-2 131,0,0,0,0,0,0,0,0,0,0,0,0,0,0,131,
scooby_state_401a3d|33|0 130,0,0,0,1,0,0,0,0,0,0,0,0,0,0,131,
scooby_state_4019f7|34|2 127,0,0,0,0,0,0,0,0,0,0,0,0,0,0,127,
scooby_state_4019ec|32|-1 126,0,0,0,0,0,0,0,0,0,0,0,0,0,0,126,
scooby_state_4019e0|32|-2 122,0,0,0,0,0,0,0,0,0,0,0,0,0,0,122,
scooby_state_401a31|32|1 120,0,0,0,0,0,0,0,0,0,0,0,0,0,0,120,
scooby_state_4019e7|31|-5 118,0,1,0,0,0,0,0,0,0,0,0,0,0,0,119,
scooby_state_401a54|33|-2 117,0,0,0,1,0,0,0,0,0,0,0,0,0,0,118,
scooby_state_401a54|35|3 118,0,0,0,0,0,0,0,0,0,0,0,0,0,0,118,
scooby_state_401a3d|32|-1 114,0,0,0,0,0,0,0,0,0,0,0,0,0,1,115,
scooby_state_4019e0|35|3 115,0,0,0,0,0,0,0,0,0,0,0,0,0,0,115,
scooby_state_4019e0|34|0 115,0,0,0,0,0,0,0,0,0,0,0,0,0,0,115,
scooby_state_401a16|33|0 113,0,0,0,0,0,0,0,0,0,0,0,0,0,0,113,
scooby_state_4019e0|36|0 109,0,0,0,0,0,0,0,0,0,0,0,0,0,0,109,
scooby_state_401a26|31|-2 107,0,0,0,0,0,0,0,0,0,0,0,0,0,0,107,
scooby_state_401a31|32|-4 105,0,0,0,0,0,1,0,0,0,0,0,0,0,0,106,
scooby_state_401a54|32|-2 105,0,0,0,0,0,0,0,0,0,0,0,0,0,0,105,
scooby_state_401885|36|0 104,0,0,0,0,0,0,0,0,0,0,0,1,0,0,105,
scooby_state_401aa1|34|0 104,0,0,0,0,0,0,0,0,0,0,0,0,0,0,104,
scooby_state_401a54|34|2 104,0,0,0,0,0,0,0,0,0,0,0,0,0,0,104,
scooby_state_401a54|34|3 102,0,0,0,0,0,0,0,0,0,0,0,0,0,0,102,
scooby_state_401a54|37|4 101,0,0,0,0,0,0,0,0,0,0,0,0,0,0,101,
scooby_state_401a26|32|-2 101,0,0,0,0,0,0,0,0,0,0,0,0,0,0,101,
scooby_state_401a54|33|-3 101,0,0,0,0,0,0,0,0,0,0,0,0,0,0,101,
scooby_state_401a26|33|-2 100,0,0,0,0,0,0,0,0,0,0,0,0,0,0,100,
scooby_state_401a54|31|-3 97,1,0,0,0,0,0,0,0,0,0,0,0,0,0,98,
scooby_state_4019f7|35|3 97,0,0,0,0,0,0,0,0,0,0,0,0,0,0,97,
scooby_state_401a3d|31|-2 92,0,0,0,0,0,0,0,0,0,0,0,0,0,0,92,
scooby_state_4019f7|32|-2 92,0,0,0,0,0,0,0,0,0,0,0,0,0,0,92,
scooby_state_401a07|32|-1 91,0,0,0,0,0,0,0,0,0,0,0,0,0,0,91,
scooby_state_401a26|32|-1 89,0,0,0,0,0,0,0,0,0,0,0,0,0,0,89,
scooby_state_401a26|32|-3 87,0,0,0,0,0,0,0,0,0,0,0,0,0,0,87,
scooby_state_401a07|36|3 87,0,0,0,0,0,0,0,0,0,0,0,0,0,0,87,
scooby_state_401950|33|-4 86,0,0,0,0,0,0,0,0,0,0,0,0,0,0,86,
scooby_state_401a54|32|-3 86,0,0,0,0,0,0,0,0,0,0,0,0,0,0,86,
scooby_state_401800|35|0 86,0,0,0,0,0,0,0,0,0,0,0,0,0,0,86,
scooby_state_401a3d|36|3 85,0,0,0,0,0,0,0,0,0,0,0,0,0,0,85,
scooby_state_4019e0|35|2 83,0,0,0,0,0,0,0,1,0,0,0,0,0,0,84,
scooby_state_401a54|33|2 82,0,0,0,0,0,0,0,0,0,0,0,0,0,0,82,
scooby_state_401a16|31|-2 82,0,0,0,0,0,0,0,0,0,0,0,0,0,0,82,
scooby_state_4019f7|35|2 80,0,0,0,0,0,0,0,0,0,0,0,0,0,0,80,
scooby_state_4019f7|31|-2 80,0,0,0,0,0,0,0,0,0,0,0,0,0,0,80,
scooby_state_401ae7|37|3 80,0,0,0,0,0,0,0,0,0,0,0,0,0,0,80,
scooby_state_401a65|31|0 79,0,0,1,0,0,0,0,0,0,0,0,0,0,0,80,
scooby_state_401a26|34|2 80,0,0,0,0,0,0,0,0,0,0,0,0,0,0,80,
scooby_state_401a26|35|3 78,0,0,0,0,0,0,0,0,0,0,0,0,0,0,78,
scooby_state_401a16|32|-1 76,0,0,0,0,0,0,0,0,0,0,0,0,0,0,76,
scooby_state_401a07|33|-2 74,0,0,0,0,0,0,0,1,0,0,0,0,0,0,75,
scooby_state_4019e0|37|4 73,0,0,0,0,0,0,0,0,0,0,0,0,0,0,73,
scooby_state_401a65|31|-5 73,0,0,0,0,0,0,0,0,0,0,0,0,0,0,73,
scooby_state_4019e0|33|-3 73,0,0,0,0,0,0,0,0,0,0,0,0,0,0,73,
scooby_state_4019fd|44|1 72,0,0,0,0,0,0,0,0,0,0,0,0,0,0,72,
scooby_state_4019fd|56|1 72,0,0,0,0,0,0,0,0,0,0,0,0,0,0,72,
scooby_state_401a3d|35|3 72,0,0,0,0,0,0,0,0,0,0,0,0,0,0,72,
scooby_state_401a3d|34|2 71,0,0,0,0,0,0,0,0,0,0,0,0,0,0,71,
scooby_state_4019fd|52|1 71,0,0,0,0,0,0,0,0,0,0,0,0,0,0,71,
scooby_state_4019e0|31|-3 70,0,0,0,0,0,0,0,0,0,0,0,0,0,1,71,
scooby_state_401a2c|31|0 71,0,0,0,0,0,0,0,0,0,0,0,0,0,0,71,
scooby_state_401a0d|35|0 71,0,0,0,0,0,0,0,0,0,0,0,0,0,0,71,
scooby_state_4019fd|51|1 71,0,0,0,0,0,0,0,0,0,0,0,0,0,0,71,
scooby_state_4019fd|60|1 70,0,0,0,0,0,0,0,0,0,0,0,0,0,0,70,
scooby_state_401a3d|32|-2 70,0,0,0,0,0,0,0,0,0,0,0,0,0,0,70,
scooby_state_4019fd|63|1 69,0,0,0,0,0,0,0,0,0,0,0,0,0,0,69,
scooby_state_4019fd|48|1 69,0,0,0,0,0,0,0,0,0,0,0,0,0,0,69,
scooby_state_4019fd|47|1 66,0,0,0,0,0,0,0,0,0,0,0,0,0,0,66,
scooby_state_4019fd|45|1 66,0,0,0,0,0,0,0,0,0,0,0,0,0,0,66,
scooby_state_4019fd|59|1 66,0,0,0,0,0,0,0,0,0,0,0,0,0,0,66,
scooby_state_4019fd|55|1 66,0,0,0,0,0,0,0,0,0,0,0,0,0,0,66,
scooby_state_4019fd|54|1 66,0,0,0,0,0,0,0,0,0,0,0,0,0,0,66,
scooby_state_4019fd|46|1 66,0,0,0,0,0,0,0,0,0,0,0,0,0,0,66,
scooby_state_401a16|34|3 65,0,0,0,0,0,0,0,0,0,0,0,0,0,0,65,
scooby_state_4019fd|43|1 65,0,0,0,0,0,0,0,0,0,0,0,0,0,0,65,
scooby_state_4019fd|58|1 65,0,0,0,0,0,0,0,0,0,0,0,0,0,0,65,
scooby_state_4019fd|49|1 65,0,0,0,0,0,0,0,0,0,0,0,0,0,0,65,
scooby_state_401a3d|33|-2 64,0,0,0,0,0,0,0,0,0,0,0,0,0,0,64,
scooby_state_401a16|34|2 64,0,0,0,0,0,0,0,0,0,0,0,0,0,0,64,
[...]
scooby_state_4019fd|6|-41 1,0,0,0,0,0,0,0,0,0,0,0,0,0,0,1,
scooby_state_401a3d|13|-1 1,0,0,0,0,0,0,0,0,0,0,0,0,0,0,1,
scooby_state_401a07|57|0 1,0,0,0,0,0,0,0,0,0,0,0,0,0,0,1,
scooby_state_4019e0|27|2 1,0,0,0,0,0,0,0,0,0,0,0,0,0,0,1,
scooby_state_4019ec|11|-40 1,0,0,0,0,0,0,0,0,0,0,0,0,0,0,1,
scooby_state_4019f7|42|2 1,0,0,0,0,0,0,0,0,0,0,0,0,0,0,1,
scooby_state_401a54|20|2 1,0,0,0,0,0,0,0,0,0,0,0,0,0,0,1,
scooby_state_4019f7|57|0 1,0,0,0,0,0,0,0,0,0,0,0,0,0,0,1,
scooby_state_401a3d|56|0 1,0,0,0,0,0,0,0,0,0,0,0,0,0,0,1,
scooby_state_4019ec|33|1 1,0,0,0,0,0,0,0,0,0,0,0,0,0,0,1,
scooby_state_40195b|38|2 1,0,0,0,0,0,0,0,0,0,0,0,0,0,0,1,
scooby_state_4019ec|14|-40 1,0,0,0,0,0,0,0,0,0,0,0,0,0,0,1,
scooby_state_401a16|27|2 1,0,0,0,0,0,0,0,0,0,0,0,0,0,0,1,
scooby_state_4019e0|36|-1 1,0,0,0,0,0,0,0,0,0,0,0,0,0,0,1,
scooby_state_4019e0|25|-1 1,0,0,0,0,0,0,0,0,0,0,0,0,0,0,1,
scooby_state_4019fd|46|-17 1,0,0,0,0,0,0,0,0,0,0,0,0,0,0,1,
scooby_state_401a3d|29|-2 1,0,0,0,0,0,0,0,0,0,0,0,0,0,0,1,
scooby_state_401a0d|19|2 1,0,0,0,0,0,0,0,0,0,0,0,0,0,0,1,
scooby_state_401a2c|56|40 1,0,0,0,0,0,0,0,0,0,0,0,0,0,0,1,
scooby_state_4019e0|62|-1 1,0,0,0,0,0,0,0,0,0,0,0,0,0,0,1,
scooby_state_4019ec|52|41 1,0,0,0,0,0,0,0,0,0,0,0,0,0,0,1,
scooby_state_401a54|50|-1 1,0,0,0,0,0,0,0,0,0,0,0,0,0,0,1,
scooby_state_401a2c|34|1 1,0,0,0,0,0,0,0,0,0,0,0,0,0,0,1,
scooby_state_401a16|18|2 1,0,0,0,0,0,0,0,0,0,0,0,0,0,0,1,
scooby_state_4019fd|41|-22 1,0,0,0,0,0,0,0,0,0,0,0,0,0,0,1,
scooby_state_401a2c|17|0 1,0,0,0,0,0,0,0,0,0,0,0,0,0,0,1,
scooby_state_401a2c|39|0 1,0,0,0,0,0,0,0,0,0,0,0,0,0,0,1,
scooby_state_4019e0|26|2 1,0,0,0,0,0,0,0,0,0,0,0,0,0,0,1,
scooby_state_4019fd|0|-8 1,0,0,0,0,0,0,0,0,0,0,0,0,0,0,1,
scooby_state_401a43|39|-24 1,0,0,0,0,0,0,0,0,0,0,0,0,0,0,1,
scooby_state_401a0d|26|0 1,0,0,0,0,0,0,0,0,0,0,0,0,0,0,1,
scooby_state_401a5c|0|-18 1,0,0,0,0,0,0,0,0,0,0,0,0,0,0,1,
scooby_state_401a3d|15|2 1,0,0,0,0,0,0,0,0,0,0,0,0,0,0,1,
scooby_state_4019fd|12|-38 1,0,0,0,0,0,0,0,0,0,0,0,0,0,0,1,
scooby_state_4019f7|40|-1 1,0,0,0,0,0,0,0,0,0,0,0,0,0,0,1,
scooby_state_401701|28|1 0,0,0,0,1,0,0,0,0,0,0,0,0,0,0,1,
scooby_state_401a3d|63|2 1,0,0,0,0,0,0,0,0,0,0,0,0,0,0,1,
scooby_state_401a16|52|2 1,0,0,0,0,0,0,0,0,0,0,0,0,0,0,1,
scooby_state_4017f0|31|-12 1,0,0,0,0,0,0,0,0,0,0,0,0,0,0,1,
scooby_state_401a3d|61|-1 1,0,0,0,0,0,0,0,0,0,0,0,0,0,0,1,
scooby_state_4019fd|11|-41 1,0,0,0,0,0,0,0,0,0,0,0,0,0,0,1,
scooby_state_4019fd|61|-2 1,0,0,0,0,0,0,0,0,0,0,0,0,0,0,1,
scooby_state_401a0d|30|0 1,0,0,0,0,0,0,0,0,0,0,0,0,0,0,1,
scooby_state_4018c2|35|1 1,0,0,0,0,0,0,0,0,0,0,0,0,0,0,1,
scooby_state_401a16|24|-1 1,0,0,0,0,0,0,0,0,0,0,0,0,0,0,1,
scooby_state_4019f7|49|2 1,0,0,0,0,0,0,0,0,0,0,0,0,0,0,1,
scooby_state_4019f7|32|2 1,0,0,0,0,0,0,0,0,0,0,0,0,0,0,1,
scooby_state_401a2c|48|0 1,0,0,0,0,0,0,0,0,0,0,0,0,0,0,1,
scooby_state_401a1c|40|0 1,0,0,0,0,0,0,0,0,0,0,0,0,0,0,1,
scooby_state_4019fd|30|-33 1,0,0,0,0,0,0,0,0,0,0,0,0,0,0,1,
scooby_state_401a88|33|-3 1,0,0,0,0,0,0,0,0,0,0,0,0,0,0,1,
scooby_state_401a16|20|2 1,0,0,0,0,0,0,0,0,0,0,0,0,0,0,1,
scooby_state_401ab0|34|0 1,0,0,0,0,0,0,0,0,0,0,0,0,0,0,1,
scooby_state_401a07|13|-1 1,0,0,0,0,0,0,0,0,0,0,0,0,0,0,1,
scooby_state_4019fd|4|-41 1,0,0,0,0,0,0,0,0,0,0,0,0,0,0,1,
scooby_state_401a16|6|2 1,0,0,0,0,0,0,0,0,0,0,0,0,0,0,1,
scooby_state_401a5c|0|-6 1,0,0,0,0,0,0,0,0,0,0,0,0,0,0,1,
scooby_state_401a16|7|-1 1,0,0,0,0,0,0,0,0,0,0,0,0,0,0,1,
scooby_state_401a2c|22|-1 1,0,0,0,0,0,0,0,0,0,0,0,0,0,0,1,
scooby_state_401a16|57|0 1,0,0,0,0,0,0,0,0,0,0,0,0,0,0,1,
scooby_state_401a0d|18|0 1,0,0,0,0,0,0,0,0,0,0,0,0,0,0,1,
scooby_state_4019ec|30|1 1,0,0,0,0,0,0,0,0,0,0,0,0,0,0,1,
scooby_state_401a2c|53|40 1,0,0,0,0,0,0,0,0,0,0,0,0,0,0,1,
scooby_state_401a0d|18|-1 1,0,0,0,0,0,0,0,0,0,0,0,0,0,0,1,
scooby_state_401a5c|24|-39 1,0,0,0,0,0,0,0,0,0,0,0,0,0,0,1,
scooby_state_4019e0|61|2 1,0,0,0,0,0,0,0,0,0,0,0,0,0,0,1,
scooby_state_401a16|50|-1 1,0,0,0,0,0,0,0,0,0,0,0,0,0,0,1,
scooby_state_401a16|17|-1 1,0,0,0,0,0,0,0,0,0,0,0,0,0,0,1,
scooby_state_401a3d|47|2 1,0,0,0,0,0,0,0,0,0,0,0,0,0,0,1,
scooby_state_401a54|56|0 1,0,0,0,0,0,0,0,0,0,0,0,0,0,0,1,
scooby_state_401a5c|0|-1 1,0,0,0,0,0,0,0,0,0,0,0,0,0,0,1,
scooby_state_401a3d|13|-2 1,0,0,0,0,0,0,0,0,0,0,0,0,0,0,1,
scooby_state_4019e0|8|-1 1,0,0,0,0,0,0,0,0,0,0,0,0,0,0,1,
scooby_state_4019e0|9|2 1,0,0,0,0,0,0,0,0,0,0,0,0,0,0,1,
scooby_state_4019f7|56|2 1,0,0,0,0,0,0,0,0,0,0,0,0,0,0,1,
scooby_state_401a16|57|2 1,0,0,0,0,0,0,0,0,0,0,0,0,0,0,1,
scooby_state_401a3d|21|3 1,0,0,0,0,0,0,0,0,0,0,0,0,0,0,1,
scooby_state_401a16|5|-1 1,0,0,0,0,0,0,0,0,0,0,0,0,0,0,1,
scooby_state_401aa1|34|-2 1,0,0,0,0,0,0,0,0,0,0,0,0,0,0,1,
scooby_state_4019f7|55|-1 1,0,0,0,0,0,0,0,0,0,0,0,0,0,0,1,
scooby_state_401a16|35|-1 1,0,0,0,0,0,0,0,0,0,0,0,0,0,0,1,
scooby_state_401a54|52|2 1,0,0,0,0,0,0,0,0,0,0,0,0,0,0,1,
scooby_state_4019fd|27|-36 1,0,0,0,0,0,0,0,0,0,0,0,0,0,0,1,
scooby_state_401a0d|20|2 1,0,0,0,0,0,0,0,0,0,0,0,0,0,0,1,
scooby_state_4019e0|9|-1 1,0,0,0,0,0,0,0,0,0,0,0,0,0,0,1,
scooby_state_401a07|63|2 1,0,0,0,0,0,0,0,0,0,0,0,0,0,0,1,
scooby_state_401a2c|3|0 1,0,0,0,0,0,0,0,0,0,0,0,0,0,0,1,
scooby_state_401a79|32|0 1,0,0,0,0,0,0,0,0,0,0,0,0,0,0,1,
scooby_state_4019f7|12|2 1,0,0,0,0,0,0,0,0,0,0,0,0,0,0,1,
scooby_state_4019ec|24|-39 1,0,0,0,0,0,0,0,0,0,0,0,0,0,0,1,
scooby_state_4019f7|18|-1 1,0,0,0,0,0,0,0,0,0,0,0,0,0,0,1,
scooby_state_401a3d|18|-1 1,0,0,0,0,0,0,0,0,0,0,0,0,0,0,1,
scooby_state_401a54|18|-1 1,0,0,0,0,0,0,0,0,0,0,0,0,0,0,1,
scooby_state_401a07|47|2 1,0,0,0,0,0,0,0,0,0,0,0,0,0,0,1,
scooby_state_401a16|18|-1 1,0,0,0,0,0,0,0,0,0,0,0,0,0,0,1,
scooby_state_401a3d|48|3 1,0,0,0,0,0,0,0,0,0,0,0,0,0,0,1,
scooby_state_401a3d|45|-2 1,0,0,0,0,0,0,0,0,0,0,0,0,0,0,1,
scooby_state_4019fd|0|-13 1,0,0,0,0,0,0,0,0,0,0,0,0,0,0,1,
scooby_state_4019f7|20|2 1,0,0,0,0,0,0,0,0,0,0,0,0,0,0,1,
scooby_state_4019c5|33|-4 1,0,0,0,0,0,0,0,0,0,0,0,0,0,0,1,
scooby_state_401a16|55|2 1,0,0,0,0,0,0,0,0,0,0,0,0,0,0,1,
scooby_state_4019e0|55|2 1,0,0,0,0,0,0,0,0,0,0,0,0,0,0,1,
scooby_state_401a07|20|2 1,0,0,0,0,0,0,0,0,0,0,0,0,0,0,1,
scooby_state_4019e0|53|-1 1,0,0,0,0,0,0,0,0,0,0,0,0,0,0,1,
scooby_state_401a07|2|-2 1,0,0,0,0,0,0,0,0,0,0,0,0,0,0,1,
scooby_state_4019e0|54|2 1,0,0,0,0,0,0,0,0,0,0,0,0,0,0,1,
scooby_state_401a3d|20|2 1,0,0,0,0,0,0,0,0,0,0,0,0,0,0,1,
scooby_state_401a16|37|2 1,0,0,0,0,0,0,0,0,0,0,0,0,0,0,1,
scooby_state_401a16|5|3 1,0,0,0,0,0,0,0,0,0,0,0,0,0,0,1,
scooby_state_4019f7|30|-1 1,0,0,0,0,0,0,0,0,0,0,0,0,0,0,1,
scooby_state_401a5c|8|-41 1,0,0,0,0,0,0,0,0,0,0,0,0,0,0,1,
scooby_state_4019e0|38|2 1,0,0,0,0,0,0,0,0,0,0,0,0,0,0,1,
scooby_state_401a2c|48|40 1,0,0,0,0,0,0,0,0,0,0,0,0,0,0,1,
scooby_state_401a26|2|-2 1,0,0,0,0,0,0,0,0,0,0,0,0,0,0,1,
scooby_state_401a3d|2|-2 1,0,0,0,0,0,0,0,0,0,0,0,0,0,0,1,
scooby_state_401a0d|2|-1 1,0,0,0,0,0,0,0,0,0,0,0,0,0,0,1,
scooby_state_401a26|5|3 1,0,0,0,0,0,0,0,0,0,0,0,0,0,0,1,
scooby_state_401a3d|5|3 1,0,0,0,0,0,0,0,0,0,0,0,0,0,0,1,
scooby_state_401a16|60|-1 1,0,0,0,0,0,0,0,0,0,0,0,0,0,0,1,
scooby_state_401a0d|4|2 1,0,0,0,0,0,0,0,0,0,0,0,0,0,0,1,
scooby_state_401a07|36|2 1,0,0,0,0,0,0,0,0,0,0,0,0,0,0,1,
scooby_state_401a54|37|3 1,0,0,0,0,0,0,0,0,0,0,0,0,0,0,1,
scooby_state_401a54|34|-1 1,0,0,0,0,0,0,0,0,0,0,0,0,0,0,1,
scooby_state_4019fd|25|-38 1,0,0,0,0,0,0,0,0,0,0,0,0,0,0,1,
scooby_state_401a3d|37|3 1,0,0,0,0,0,0,0,0,0,0,0,0,0,0,1,
scooby_state_401a16|37|3 1,0,0,0,0,0,0,0,0,0,0,0,0,0,0,1,
scooby_state_4019fd|0|-11 1,0,0,0,0,0,0,0,0,0,0,0,0,0,0,1,
scooby_state_4019f7|47|-1 1,0,0,0,0,0,0,0,0,0,0,0,0,0,0,1,
scooby_state_401a3d|34|-1 1,0,0,0,0,0,0,0,0,0,0,0,0,0,0,1,
scooby_state_401a16|2|-2 1,0,0,0,0,0,0,0,0,0,0,0,0,0,0,1,
scooby_state_401a0d|8|0 1,0,0,0,0,0,0,0,0,0,0,0,0,0,0,1,
scooby_state_401a26|52|2 1,0,0,0,0,0,0,0,0,0,0,0,0,0,0,1,
scooby_state_4019fd|44|-19 1,0,0,0,0,0,0,0,0,0,0,0,0,0,0,1,
scooby_state_401a16|13|-2 1,0,0,0,0,0,0,0,0,0,0,0,0,0,0,1,
scooby_state_401a2c|51|40 1,0,0,0,0,0,0,0,0,0,0,0,0,0,0,1,
scooby_state_401780|30|1 1,0,0,0,0,0,0,0,0,0,0,0,0,0,0,1,
scooby_state_401a07|15|2 1,0,0,0,0,0,0,0,0,0,0,0,0,0,0,1,
scooby_state_401a26|13|-2 1,0,0,0,0,0,0,0,0,0,0,0,0,0,0,1,
scooby_state_401a0d|25|0 1,0,0,0,0,0,0,0,0,0,0,0,0,0,0,1,
scooby_state_401a26|16|3 1,0,0,0,0,0,0,0,0,0,0,0,0,0,0,1,
scooby_state_401a3d|16|3 1,0,0,0,0,0,0,0,0,0,0,0,0,0,0,1,
scooby_state_401a16|16|3 1,0,0,0,0,0,0,0,0,0,0,0,0,0,0,1,
scooby_state_4019fd|0|-25 1,0,0,0,0,0,0,0,0,0,0,0,0,0,0,1,
scooby_state_401a07|45|-1 1,0,0,0,0,0,0,0,0,0,0,0,0,0,0,1,
scooby_state_4019f7|41|2 1,0,0,0,0,0,0,0,0,0,0,0,0,0,0,1,
scooby_state_401a0d|27|0 1,0,0,0,0,0,0,0,0,0,0,0,0,0,0,1,
scooby_state_401a07|49|0 1,0,0,0,0,0,0,0,0,0,0,0,0,0,0,1,
scooby_state_401a26|49|0 1,0,0,0,0,0,0,0,0,0,0,0,0,0,0,1,
scooby_state_401a16|9|2 1,0,0,0,0,0,0,0,0,0,0,0,0,0,0,1,
scooby_state_401a07|18|-1 1,0,0,0,0,0,0,0,0,0,0,0,0,0,0,1,
scooby_state_401a16|25|2 1,0,0,0,0,0,0,0,0,0,0,0,0,0,0,1,
scooby_state_401a43|49|0 1,0,0,0,0,0,0,0,0,0,0,0,0,0,0,1,
scooby_state_4019ec|45|41 1,0,0,0,0,0,0,0,0,0,0,0,0,0,0,1,
scooby_state_401a2c|4|1 1,0,0,0,0,0,0,0,0,0,0,0,0,0,0,1,
scooby_state_4019fd|0|-27 1,0,0,0,0,0,0,0,0,0,0,0,0,0,0,1,
scooby_state_4019ec|25|1 1,0,0,0,0,0,0,0,0,0,0,0,0,0,0,1,
scooby_state_401a2c|49|41 1,0,0,0,0,0,0,0,0,0,0,0,0,0,0,1,
scooby_state_401a0d|11|0 1,0,0,0,0,0,0,0,0,0,0,0,0,0,0,1,
scooby_state_401a84|42|3 1,0,0,0,0,0,0,0,0,0,0,0,0,0,0,1,
scooby_state_401a48|32|-1 1,0,0,0,0,0,0,0,0,0,0,0,0,0,0,1,
scooby_state_4019f7|10|-1 1,0,0,0,0,0,0,0,0,0,0,0,0,0,0,1,
scooby_state_401a07|61|-1 1,0,0,0,0,0,0,0,0,0,0,0,0,0,0,1,
scooby_state_401a07|50|-2 1,0,0,0,0,0,0,0,0,0,0,0,0,0,0,1,
scooby_state_4019e0|37|2 1,0,0,0,0,0,0,0,0,0,0,0,0,0,0,1,
scooby_state_401a0d|3|2 1,0,0,0,0,0,0,0,0,0,0,0,0,0,0,1,
scooby_state_401a07|29|-1 1,0,0,0,0,0,0,0,0,0,0,0,0,0,0,1,
scooby_state_4019ec|16|-40 1,0,0,0,0,0,0,0,0,0,0,0,0,0,0,1,
scooby_state_4019ec|58|41 1,0,0,0,0,0,0,0,0,0,0,0,0,0,0,1,
scooby_state_4019f7|48|2 1,0,0,0,0,0,0,0,0,0,0,0,0,0,0,1,
scooby_state_401a07|5|3 1,0,0,0,0,0,0,0,0,0,0,0,0,0,0,1,
scooby_state_4019f7|22|2 1,0,0,0,0,0,0,0,0,0,0,0,0,0,0,1,
scooby_state_401a07|31|2 1,0,0,0,0,0,0,0,0,0,0,0,0,0,0,1,
scooby_state_4019f7|20|-1 1,0,0,0,0,0,0,0,0,0,0,0,0,0,0,1,
scooby_state_4019f7|21|2 1,0,0,0,0,0,0,0,0,0,0,0,0,0,0,1,
scooby_state_401a16|19|2 1,0,0,0,0,0,0,0,0,0,0,0,0,0,0,1,
scooby_state_401a0d|23|0 1,0,0,0,0,0,0,0,0,0,0,0,0,0,0,1,
scooby_state_401b05|44|0 1,0,0,0,0,0,0,0,0,0,0,0,0,0,0,1,
scooby_state_4019ec|60|41 1,0,0,0,0,0,0,0,0,0,0,0,0,0,0,1,
scooby_state_4016ed|27|-17 1,0,0,0,0,0,0,0,0,0,0,0,0,0,0,1,
scooby_state_401a16|53|-1 1,0,0,0,0,0,0,0,0,0,0,0,0,0,0,1,
scooby_state_4019ec|50|41 1,0,0,0,0,0,0,0,0,0,0,0,0,0,0,1,
scooby_state_4019fd|2|-41 1,0,0,0,0,0,0,0,0,0,0,0,0,0,0,1,
scooby_state_401a43|48|-15 1,0,0,0,0,0,0,0,0,0,0,0,0,0,0,1,
scooby_state_401a16|61|0 1,0,0,0,0,0,0,0,0,0,0,0,0,0,0,1,
scooby_state_401a5c|0|-32 1,0,0,0,0,0,0,0,0,0,0,0,0,0,0,1,
scooby_state_4019e0|62|2 1,0,0,0,0,0,0,0,0,0,0,0,0,0,0,1,
scooby_state_4019ec|6|-40 1,0,0,0,0,0,0,0,0,0,0,0,0,0,0,1,
scooby_state_4019e0|60|-1 1,0,0,0,0,0,0,0,0,0,0,0,0,0,0,1,
scooby_state_401a0d|50|-1 1,0,0,0,0,0,0,0,0,0,0,0,0,0,0,1,
scooby_state_4019fd|58|-5 1,0,0,0,0,0,0,0,0,0,0,0,0,0,0,1,
scooby_state_4019fd|9|-41 1,0,0,0,0,0,0,0,0,0,0,0,0,0,0,1,
scooby_state_401800|32|1 1,0,0,0,0,0,0,0,0,0,0,0,0,0,0,1,
scooby_state_4019ec|24|1 1,0,0,0,0,0,0,0,0,0,0,0,0,0,0,1,
scooby_state_4019fd|15|-41 1,0,0,0,0,0,0,0,0,0,0,0,0,0,0,1,
scooby_state_4019fd|31|-1 1,0,0,0,0,0,0,0,0,0,0,0,0,0,0,1,
scooby_state_401a16|53|2 1,0,0,0,0,0,0,0,0,0,0,0,0,0,0,1,
scooby_state_401a43|56|-7 1,0,0,0,0,0,0,0,0,0,0,0,0,0,0,1,
scooby_state_401a26|17|0 1,0,0,0,0,0,0,0,0,0,0,0,0,0,0,1,
scooby_state_401a3d|18|-2 1,0,0,0,0,0,0,0,0,0,0,0,0,0,0,1,
scooby_state_401a16|61|2 1,0,0,0,0,0,0,0,0,0,0,0,0,0,0,1,
scooby_state_401a16|25|-1 1,0,0,0,0,0,0,0,0,0,0,0,0,0,0,1,
scooby_state_401a2c|1|-1 1,0,0,0,0,0,0,0,0,0,0,0,0,0,0,1,
scooby_state_401a2c|18|1 1,0,0,0,0,0,0,0,0,0,0,0,0,0,0,1,
scooby_state_401a26|50|-1 1,0,0,0,0,0,0,0,0,0,0,0,0,0,0,1,
scooby_state_401a5c|0|-35 1,0,0,0,0,0,0,0,0,0,0,0,0,0,0,1,
scooby_state_401a43|51|-12 1,0,0,0,0,0,0,0,0,0,0,0,0,0,0,1,
scooby_state_401a16|52|-1 1,0,0,0,0,0,0,0,0,0,0,0,0,0,0,1,
scooby_state_401a0d|50|0 1,0,0,0,0,0,0,0,0,0,0,0,0,0,0,1,
scooby_state_401a3d|50|-2 1,0,0,0,0,0,0,0,0,0,0,0,0,0,0,1,
scooby_state_4019ec|7|-40 1,0,0,0,0,0,0,0,0,0,0,0,0,0,0,1,
scooby_state_401a26|50|-2 1,0,0,0,0,0,0,0,0,0,0,0,0,0,0,1,
scooby_state_4019f7|11|2 1,0,0,0,0,0,0,0,0,0,0,0,0,0,0,1,
scooby_state_401a26|53|3 1,0,0,0,0,0,0,0,0,0,0,0,0,0,0,1,
scooby_state_4019e0|11|2 1,0,0,0,0,0,0,0,0,0,0,0,0,0,0,1,
scooby_state_401a16|6|-1 1,0,0,0,0,0,0,0,0,0,0,0,0,0,0,1,
scooby_state_401a3d|53|3 1,0,0,0,0,0,0,0,0,0,0,0,0,0,0,1,
scooby_state_4019ec|26|1 1,0,0,0,0,0,0,0,0,0,0,0,0,0,0,1,
scooby_state_401a07|53|3 1,0,0,0,0,0,0,0,0,0,0,0,0,0,0,1,
scooby_state_4019ec|44|41 1,0,0,0,0,0,0,0,0,0,0,0,0,0,0,1,
scooby_state_4019e0|57|0 1,0,0,0,0,0,0,0,0,0,0,0,0,0,0,1,

scooby_action_0_deg_dist 0,182,0,0,0,0,0,0,0,0,0,0,0,0,0,0,
scooby_action_4_deg_dist 0,183,0,0,0,0,0,0,0,0,0,0,0,0,0,0,
scooby_action_32_deg_dist 0,153,0,0,0,0,0,0,0,0,0,0,0,0,0,0,
scooby_action_3_deg_dist 0,517,0,0,0,0,0,0,0,0,0,0,0,0,0,0,
scooby_action_5_deg_dist 0,169,0,0,0,0,0,0,0,0,0,0,0,0,0,0,
scooby_action_1_deg_dist 0,66030,41726,0,105567,0,1212024,0,0,0,0,0,0,0,0,0,
scooby_action_30_deg_dist 0,184,0,0,0,0,0,0,0,0,0,0,0,0,0,0,
scooby_action_-3_deg_dist 0,170,0,0,0,0,0,0,0,0,0,0,0,0,0,0,
scooby_action_10_deg_dist 0,202,0,0,0,0,0,0,0,0,0,0,0,0,0,0,
scooby_action_-1_deg_dist 0,172,0,0,0,0,0,0,0,0,0,0,0,0,0,0,
scooby_action_23_deg_dist 0,177,0,0,0,0,0,0,0,0,0,0,0,0,0,0,
scooby_action_-6_deg_dist 0,165,0,0,0,0,0,0,0,0,0,0,0,0,0,0,
scooby_action_11_deg_dist 0,163,0,0,0,0,0,0,0,0,0,0,0,0,0,0,
scooby_action_22_deg_dist 0,183,0,0,0,0,0,0,0,0,0,0,0,0,0,0,
scooby_action_12_deg_dist 0,185,0,0,0,0,0,0,0,0,0,0,0,0,0,0,

scooby_track_called 1428152
scooby_track_same_address 24563
scooby_track_evict 1403333

scooby_reward_demand_called 1428152
scooby_reward_demand_pt_not_found 27968
scooby_reward_demand_pt_found 1400184
scooby_reward_demand_pt_found_total 1400184
scooby_reward_demand_has_reward 22102
scooby_reward_train_called 3209
scooby_reward_assign_reward_called 1403577
scooby_reward_no_pref 182
scooby_reward_incorrect 3027
scooby_reward_correct_untimely 1279450
scooby_reward_correct_timely 98632
scooby_reward_out_of_bounds 22286
scooby_reward_tracker_hit 0

scooby_reward_none_low_bw 182
scooby_reward_none_high_bw 0
scooby_reward_incorrect_low_bw 3027
scooby_reward_incorrect_high_bw 0
scooby_reward_correct_untimely_low_bw 1279450
scooby_reward_correct_untimely_high_bw 0
scooby_reward_correct_timely_low_bw 98632
scooby_reward_correct_timely_high_bw 0
scooby_reward_out_of_bounds_low_bw 22286
scooby_reward_out_of_bounds_high_bw 0
scooby_reward_tracker_hit_low_bw 0
scooby_reward_tracker_hit_high_bw 0

scooby_reward_1 0,2551,1279189,97631,21862,0,
scooby_reward_3 0,323,143,39,11,0,
scooby_reward_4 0,2,68,103,10,0,
scooby_reward_5 0,2,44,109,14,0,
scooby_reward_10 0,20,1,150,31,0,
scooby_reward_11 0,12,0,127,24,0,
scooby_reward_12 0,15,1,137,32,0,
scooby_reward_22 0,14,2,112,55,0,
scooby_reward_23 0,15,2,99,61,0,
scooby_reward_30 0,12,0,90,82,0,
scooby_reward_32 0,41,0,35,77,0,
scooby_reward_-1 0,4,0,0,4,0,
scooby_reward_-3 0,5,0,0,5,0,
scooby_reward_-6 0,11,0,0,18,0,
scooby_reward_0 182,0,0,0,0,0,

scooby_train_called 1403332
scooby_train_compute_reward 3209

scooby_register_fill_called 1235150
scooby_register_fill_set 98738
scooby_register_fill_set_total 98738

scooby_register_prefetch_hit_called 2934847
scooby_register_prefetch_hit_set 1100846
scooby_register_prefetch_hit_set_total 1100846

scooby_pref_issue_scooby 7248124

learning_engine_featurewise.action.called 1428152
learning_engine_featurewise.action.explore 2648
learning_engine_featurewise.action.exploit 1425504
learning_engine_featurewise.action.fallback 0
learning_engine_featurewise.action.dyn_fallback_saved_bw 0
learning_engine_featurewise.action.dyn_fallback_saved_bw_acc 3
learning_engine_featurewise.action.index_1_explored 167
learning_engine_featurewise.action.index_1_exploited 1425180
learning_engine_featurewise.action.index_3_explored 194
learning_engine_featurewise.action.index_3_exploited 323
learning_engine_featurewise.action.index_4_explored 183
learning_engine_featurewise.action.index_4_exploited 0
learning_engine_featurewise.action.index_5_explored 169
learning_engine_featurewise.action.index_5_exploited 0
learning_engine_featurewise.action.index_10_explored 201
learning_engine_featurewise.action.index_10_exploited 1
learning_engine_featurewise.action.index_11_explored 163
learning_engine_featurewise.action.index_11_exploited 0
learning_engine_featurewise.action.index_12_explored 185
learning_engine_featurewise.action.index_12_exploited 0
learning_engine_featurewise.action.index_22_explored 183
learning_engine_featurewise.action.index_22_exploited 0
learning_engine_featurewise.action.index_23_explored 177
learning_engine_featurewise.action.index_23_exploited 0
learning_engine_featurewise.action.index_30_explored 184
learning_engine_featurewise.action.index_30_exploited 0
learning_engine_featurewise.action.index_32_explored 153
learning_engine_featurewise.action.index_32_exploited 0
learning_engine_featurewise.action.index_-1_explored 172
learning_engine_featurewise.action.index_-1_exploited 0
learning_engine_featurewise.action.index_-3_explored 170
learning_engine_featurewise.action.index_-3_exploited 0
learning_engine_featurewise.action.index_-6_explored 165
learning_engine_featurewise.action.index_-6_exploited 0
learning_engine_featurewise.action.index_0_explored 182
learning_engine_featurewise.action.index_0_exploited 0
learning_engine_featurewise.learn.called 1403332
learning_engine_featurewise.learn.su_skip_PC 0
learning_engine_featurewise.learn.su_skip_PC_Delta 0

learning_engine_featurewise.q_value_histogram.bucket_0 0
learning_engine_featurewise.q_value_histogram.bucket_1 0
learning_engine_featurewise.q_value_histogram.bucket_2 0
learning_engine_featurewise.q_value_histogram.bucket_3 0
learning_engine_featurewise.q_value_histogram.bucket_4 1029
learning_engine_featurewise.q_value_histogram.bucket_5 1895
learning_engine_featurewise.q_value_histogram.bucket_6 1422580
learning_engine_featurewise.q_value_histogram.bucket_7 0

learning_engine_featurewise.consensus.total 1425504
learning_engine_featurewise.consensus.feature_align_PC 1425496
learning_engine_featurewise.consensus.feature_align_PC_ratio 1.00
learning_engine_featurewise.consensus.feature_align_PC_Delta 1425201
learning_engine_featurewise.consensus.feature_align_PC_Delta_ratio 1.00
learning_engine_featurewise.consensus.feature_align_all 1425193
learning_engine_featurewise.consensus.feature_align_all_ratio 1.00

learning_engine_featurewise.feature_PC_min_weight 1000000.00000000
learning_engine_featurewise.feature_PC_max_weight 0.00000000
learning_engine_featurewise.feature_PC_Delta_min_weight 1000000.00000000
learning_engine_featurewise.feature_PC_Delta_max_weight 0.00000000
unique_pcs 53
unique_pages 19799
unique_trigger_pcs 13
total_bitmaps_seen 0
unique_bitmaps_seen 0

scooby_bw_epochs 193027
scooby_bw_level_0 48569
scooby_bw_level_1 41101
scooby_bw_level_2 39609
scooby_bw_level_3 63748

scooby_ipc_epochs 0
scooby_ipc_level_0 0
scooby_ipc_level_1 0
scooby_ipc_level_2 0
scooby_ipc_level_3 0

scooby_cache_acc_epochs 46587
scooby_cache_acc_level_0 1
scooby_cache_acc_level_1 0
scooby_cache_acc_level_2 4
scooby_cache_acc_level_3 4
scooby_cache_acc_level_4 30
scooby_cache_acc_level_5 80
scooby_cache_acc_level_6 256
scooby_cache_acc_level_7 1639
scooby_cache_acc_level_8 6715
scooby_cache_acc_level_9 37858

Channel_0_RQ_row_buffer_hit 863853
Channel_0_RQ_row_buffer_miss 274169
Channel_0_WQ_row_buffer_hit 2277
Channel_0_WQ_row_buffer_miss 3929
Channel_0_WQ_full 0
Channel_0_dbus_congested 479134

avg_congested_cycle 8

DRAM_bw_pochs 193027
DRAM_bw_level_0 48569
DRAM_bw_level_1 41101
DRAM_bw_level_2 39609
DRAM_bw_level_3 63748
