*************************************************
   ChampSim Multicore Out-of-Order Simulator
   Last compiled: Apr  3 2025 20:54:34
*************************************************
parsing config file: /home/zir/Pythia/config/nopref.ini

trace_0 /home/zir/ChampSim/ML-DPC/ChampSimTraces/spec06/429.mcf-s0.trace.gz
adding L2C_PREFETCHER: NONE
Initialize SHIP state
warmup_instructions 10000000
simulation_instructions 50000000
champsim_seed 163
measure_ipc 0
measure_ipc_epoch 1000
measure_dram_bw 1
measure_dram_bw_epoch 256
measure_cache_acc 1
measure_cache_acc_epoch 1024
l1d_perfect 0
l2c_perfect 0
llc_perfect 0
l1d_semi_perfect 0
l2c_semi_perfect 0
llc_semi_perfect 0
semi_perfect_cache_page_buffer_size 64

num_cpus 1
cpu_freq 4000
dram_io_freq 2400
page_size 4096
block_size 64
max_read_per_cycle 8
max_fill_per_cycle 1
dram_channels 1
log2_dram_channels 0
dram_ranks 1
dram_banks 8
dram_rows 65536
dram_columns 128
dram_row_size 8
dram_size 4096
dram_pages 1048576

fetch_width 6
decode_width 6
exec_width 4
lq_width 2
sq_width 2
retire_width 4
scheduler_size 128
branch_mispredict_penalty 20
rob_size 256
lq_size 72
sq_size 56
num_instr_destinations_sparc 4
num_instr_destinations 2
num_instr_sources 4

itlb_set 16
itlb_way 8
itlb_rq_size 16
itlb_wq_size 16
itlb_pq_size 0
itlb_mshr_size 8
itlb_latency 1

dtlb_set 16
dtlb_way 4
dtlb_rq_size 16
dtlb_wq_size 16
dtlb_pq_size 0
dtlb_mshr_size 8
dtlb_latency 1

stlb_set 128
stlb_way 12
stlb_rq_size 32
stlb_wq_size 32
stlb_pq_size 0
stlb_mshr_size 16
stlb_latency 8

l1i_size 32
l1i_set 64
l1i_way 8
l1i_rq_size 64
l1i_wq_size 64
l1i_pq_size 8
l1i_mshr_size 8
l1i_latency 1

l1d_size 32
l1d_set 64
l1d_way 8
l1d_rq_size 64
l1d_wq_size 64
l1d_pq_size 8
l1d_mshr_size 16
l1d_latency 4

l2c_size 256
l2c_set 512
l2c_way 8
l2c_rq_size 32
l2c_wq_size 32
l2c_pq_size 32
l2c_mshr_size 32
l2c_latency 10

llc_size 2048
llc_set 2048
llc_way 16
llc_rq_size 32
llc_wq_size 32
llc_pq_size 32
llc_mshr_size 64
llc_latency 20

dram_channel_width 8
dram_wq_size 64
dram_rq_size 64
tRP 15
tRCD 15
tCAS 12.5
dram_dbus_turn_around_time 30
dram_write_high_wm 56
dram_write_low_wm 48
min_dram_writes_per_switch 16
dram_mtps 2400
dram_dbus_return_time 13


Heartbeat CPU  0 instructions:    1000002 cycles:    1359716 heartbeat IPC: 0.73545 cumulative IPC: 0.73545 (Simulation time: 0 hr 0 min 1 sec) 
Heartbeat CPU  0 instructions:    2000002 cycles:    2701546 heartbeat IPC: 0.74525 cumulative IPC: 0.74032 (Simulation time: 0 hr 0 min 3 sec) 
Heartbeat CPU  0 instructions:    3000000 cycles:    4102915 heartbeat IPC: 0.71359 cumulative IPC: 0.73119 (Simulation time: 0 hr 0 min 4 sec) 
Heartbeat CPU  0 instructions:    4000000 cycles:    5472224 heartbeat IPC: 0.73030 cumulative IPC: 0.73096 (Simulation time: 0 hr 0 min 5 sec) 
Heartbeat CPU  0 instructions:    5000000 cycles:    6741885 heartbeat IPC: 0.78761 cumulative IPC: 0.74163 (Simulation time: 0 hr 0 min 6 sec) 
Heartbeat CPU  0 instructions:    6000001 cycles:    8038816 heartbeat IPC: 0.77105 cumulative IPC: 0.74638 (Simulation time: 0 hr 0 min 8 sec) 
Heartbeat CPU  0 instructions:    7000000 cycles:    9349988 heartbeat IPC: 0.76268 cumulative IPC: 0.74866 (Simulation time: 0 hr 0 min 9 sec) 
Heartbeat CPU  0 instructions:    8000000 cycles:   10670799 heartbeat IPC: 0.75711 cumulative IPC: 0.74971 (Simulation time: 0 hr 0 min 10 sec) 
Heartbeat CPU  0 instructions:    9000000 cycles:   11881420 heartbeat IPC: 0.82602 cumulative IPC: 0.75749 (Simulation time: 0 hr 0 min 11 sec) 
Heartbeat CPU  0 instructions:   10000001 cycles:   12843907 heartbeat IPC: 1.03898 cumulative IPC: 0.77858 (Simulation time: 0 hr 0 min 13 sec) 

Warmup complete CPU  0 instructions:   10000001 cycles:   12843907 (Simulation time: 0 hr 0 min 13 sec) 

Heartbeat CPU  0 instructions:   11000000 cycles:   29850270 heartbeat IPC: 0.05880 cumulative IPC: 0.05880 (Simulation time: 0 hr 0 min 17 sec) 
Heartbeat CPU  0 instructions:   12000000 cycles:   45369872 heartbeat IPC: 0.06443 cumulative IPC: 0.06149 (Simulation time: 0 hr 0 min 21 sec) 
Heartbeat CPU  0 instructions:   13000001 cycles:   61084155 heartbeat IPC: 0.06364 cumulative IPC: 0.06219 (Simulation time: 0 hr 0 min 26 sec) 
Heartbeat CPU  0 instructions:   14000001 cycles:   75297866 heartbeat IPC: 0.07035 cumulative IPC: 0.06405 (Simulation time: 0 hr 0 min 30 sec) 
Heartbeat CPU  0 instructions:   15000000 cycles:   90889312 heartbeat IPC: 0.06414 cumulative IPC: 0.06407 (Simulation time: 0 hr 0 min 34 sec) 
Heartbeat CPU  0 instructions:   16000000 cycles:  108470278 heartbeat IPC: 0.05688 cumulative IPC: 0.06274 (Simulation time: 0 hr 0 min 39 sec) 
Heartbeat CPU  0 instructions:   17000001 cycles:  125203811 heartbeat IPC: 0.05976 cumulative IPC: 0.06230 (Simulation time: 0 hr 0 min 44 sec) 
Heartbeat CPU  0 instructions:   18000001 cycles:  140926979 heartbeat IPC: 0.06360 cumulative IPC: 0.06246 (Simulation time: 0 hr 0 min 48 sec) 
Heartbeat CPU  0 instructions:   19000000 cycles:  157823875 heartbeat IPC: 0.05918 cumulative IPC: 0.06208 (Simulation time: 0 hr 0 min 54 sec) 
Heartbeat CPU  0 instructions:   20000000 cycles:  174145406 heartbeat IPC: 0.06127 cumulative IPC: 0.06200 (Simulation time: 0 hr 0 min 59 sec) 
Heartbeat CPU  0 instructions:   21000000 cycles:  190472594 heartbeat IPC: 0.06125 cumulative IPC: 0.06193 (Simulation time: 0 hr 1 min 3 sec) 
Heartbeat CPU  0 instructions:   22000002 cycles:  207240080 heartbeat IPC: 0.05964 cumulative IPC: 0.06173 (Simulation time: 0 hr 1 min 7 sec) 
Heartbeat CPU  0 instructions:   23000003 cycles:  223914238 heartbeat IPC: 0.05997 cumulative IPC: 0.06159 (Simulation time: 0 hr 1 min 12 sec) 
Heartbeat CPU  0 instructions:   24000000 cycles:  241630832 heartbeat IPC: 0.05644 cumulative IPC: 0.06119 (Simulation time: 0 hr 1 min 17 sec) 
Heartbeat CPU  0 instructions:   25000000 cycles:  256512972 heartbeat IPC: 0.06719 cumulative IPC: 0.06156 (Simulation time: 0 hr 1 min 21 sec) 
Heartbeat CPU  0 instructions:   26000000 cycles:  268773272 heartbeat IPC: 0.08156 cumulative IPC: 0.06252 (Simulation time: 0 hr 1 min 25 sec) 
Heartbeat CPU  0 instructions:   27000002 cycles:  281347794 heartbeat IPC: 0.07953 cumulative IPC: 0.06331 (Simulation time: 0 hr 1 min 28 sec) 
Heartbeat CPU  0 instructions:   28000000 cycles:  298085426 heartbeat IPC: 0.05975 cumulative IPC: 0.06310 (Simulation time: 0 hr 1 min 33 sec) 
Heartbeat CPU  0 instructions:   29000002 cycles:  310970035 heartbeat IPC: 0.07761 cumulative IPC: 0.06373 (Simulation time: 0 hr 1 min 37 sec) 
Heartbeat CPU  0 instructions:   30000003 cycles:  322177400 heartbeat IPC: 0.08923 cumulative IPC: 0.06466 (Simulation time: 0 hr 1 min 41 sec) 
Heartbeat CPU  0 instructions:   31000003 cycles:  334017539 heartbeat IPC: 0.08446 cumulative IPC: 0.06539 (Simulation time: 0 hr 1 min 44 sec) 
Heartbeat CPU  0 instructions:   32000000 cycles:  350622497 heartbeat IPC: 0.06022 cumulative IPC: 0.06513 (Simulation time: 0 hr 1 min 49 sec) 
Heartbeat CPU  0 instructions:   33000000 cycles:  362965126 heartbeat IPC: 0.08102 cumulative IPC: 0.06569 (Simulation time: 0 hr 1 min 53 sec) 
Heartbeat CPU  0 instructions:   34000000 cycles:  375843044 heartbeat IPC: 0.07765 cumulative IPC: 0.06612 (Simulation time: 0 hr 1 min 57 sec) 
Heartbeat CPU  0 instructions:   35000001 cycles:  389267591 heartbeat IPC: 0.07449 cumulative IPC: 0.06641 (Simulation time: 0 hr 2 min 1 sec) 
Heartbeat CPU  0 instructions:   36000000 cycles:  406770764 heartbeat IPC: 0.05713 cumulative IPC: 0.06600 (Simulation time: 0 hr 2 min 6 sec) 
Heartbeat CPU  0 instructions:   37000001 cycles:  421007294 heartbeat IPC: 0.07024 cumulative IPC: 0.06615 (Simulation time: 0 hr 2 min 10 sec) 
Heartbeat CPU  0 instructions:   38000000 cycles:  434913297 heartbeat IPC: 0.07191 cumulative IPC: 0.06634 (Simulation time: 0 hr 2 min 14 sec) 
Heartbeat CPU  0 instructions:   39000000 cycles:  446442280 heartbeat IPC: 0.08674 cumulative IPC: 0.06688 (Simulation time: 0 hr 2 min 17 sec) 
Heartbeat CPU  0 instructions:   40000000 cycles:  462768359 heartbeat IPC: 0.06125 cumulative IPC: 0.06668 (Simulation time: 0 hr 2 min 22 sec) 
Heartbeat CPU  0 instructions:   41000003 cycles:  475254699 heartbeat IPC: 0.08009 cumulative IPC: 0.06704 (Simulation time: 0 hr 2 min 26 sec) 
Heartbeat CPU  0 instructions:   42000000 cycles:  486281314 heartbeat IPC: 0.09069 cumulative IPC: 0.06759 (Simulation time: 0 hr 2 min 30 sec) 
Heartbeat CPU  0 instructions:   43000001 cycles:  499458232 heartbeat IPC: 0.07589 cumulative IPC: 0.06782 (Simulation time: 0 hr 2 min 34 sec) 
Heartbeat CPU  0 instructions:   44000000 cycles:  513991973 heartbeat IPC: 0.06881 cumulative IPC: 0.06784 (Simulation time: 0 hr 2 min 38 sec) 
Heartbeat CPU  0 instructions:   45000000 cycles:  523793758 heartbeat IPC: 0.10202 cumulative IPC: 0.06850 (Simulation time: 0 hr 2 min 41 sec) 
Heartbeat CPU  0 instructions:   46000002 cycles:  536563434 heartbeat IPC: 0.07831 cumulative IPC: 0.06874 (Simulation time: 0 hr 2 min 45 sec) 
Heartbeat CPU  0 instructions:   47000002 cycles:  551313105 heartbeat IPC: 0.06780 cumulative IPC: 0.06871 (Simulation time: 0 hr 2 min 50 sec) 
Heartbeat CPU  0 instructions:   48000000 cycles:  561615004 heartbeat IPC: 0.09707 cumulative IPC: 0.06925 (Simulation time: 0 hr 2 min 53 sec) 
Heartbeat CPU  0 instructions:   49000000 cycles:  574515523 heartbeat IPC: 0.07752 cumulative IPC: 0.06944 (Simulation time: 0 hr 2 min 57 sec) 
Heartbeat CPU  0 instructions:   50000000 cycles:  589341043 heartbeat IPC: 0.06745 cumulative IPC: 0.06938 (Simulation time: 0 hr 3 min 1 sec) 
Heartbeat CPU  0 instructions:   51000000 cycles:  599190969 heartbeat IPC: 0.10152 cumulative IPC: 0.06992 (Simulation time: 0 hr 3 min 5 sec) 
Heartbeat CPU  0 instructions:   52000000 cycles:  611498319 heartbeat IPC: 0.08125 cumulative IPC: 0.07016 (Simulation time: 0 hr 3 min 8 sec) 
Heartbeat CPU  0 instructions:   53000000 cycles:  627114122 heartbeat IPC: 0.06404 cumulative IPC: 0.07000 (Simulation time: 0 hr 3 min 13 sec) 
Heartbeat CPU  0 instructions:   54000000 cycles:  637423969 heartbeat IPC: 0.09699 cumulative IPC: 0.07045 (Simulation time: 0 hr 3 min 17 sec) 
Heartbeat CPU  0 instructions:   55000000 cycles:  648669194 heartbeat IPC: 0.08893 cumulative IPC: 0.07077 (Simulation time: 0 hr 3 min 20 sec) 
Heartbeat CPU  0 instructions:   56000000 cycles:  665152695 heartbeat IPC: 0.06067 cumulative IPC: 0.07052 (Simulation time: 0 hr 3 min 25 sec) 
Heartbeat CPU  0 instructions:   57000001 cycles:  675373299 heartbeat IPC: 0.09784 cumulative IPC: 0.07094 (Simulation time: 0 hr 3 min 28 sec) 
Heartbeat CPU  0 instructions:   58000000 cycles:  685244755 heartbeat IPC: 0.10130 cumulative IPC: 0.07139 (Simulation time: 0 hr 3 min 32 sec) 
Heartbeat CPU  0 instructions:   59000000 cycles:  702576669 heartbeat IPC: 0.05770 cumulative IPC: 0.07104 (Simulation time: 0 hr 3 min 37 sec) 
Heartbeat CPU  0 instructions:   60000000 cycles:  712623173 heartbeat IPC: 0.09954 cumulative IPC: 0.07145 (Simulation time: 0 hr 3 min 40 sec) 
Finished CPU 0 instructions: 50000000 cycles: 699779274 cumulative IPC: 0.07145 (Simulation time: 0 hr 3 min 40 sec) 

ChampSim completed all CPUs

[ROI Statistics]
Core_0_instructions 50000000
Core_0_cycles 699779274
Core_0_IPC 0.07145

Core_0_branch_prediction_accuracy 93.33821
Core_0_branch_MPKI 18.74474
Core_0_average_ROB_occupancy_at_mispredict 51.23420

Core_0_L1D_total_access 12398003
Core_0_L1D_total_hit 5194373
Core_0_L1D_total_miss 7203630
Core_0_L1D_loads 10428766
Core_0_L1D_load_hit 3331747
Core_0_L1D_load_miss 7097019
Core_0_L1D_RFOs 1969237
Core_0_L1D_RFO_hit 1862626
Core_0_L1D_RFO_miss 106611
Core_0_L1D_prefetches 0
Core_0_L1D_prefetch_hit 0
Core_0_L1D_prefetch_miss 0
Core_0_L1D_writebacks 0
Core_0_L1D_writeback_hit 0
Core_0_L1D_writeback_miss 0
Core_0_L1D_prefetch_requested 0
Core_0_L1D_prefetch_dropped 0
Core_0_L1D_prefetch_issued 0
Core_0_L1D_prefetch_filled 0
Core_0_L1D_prefetch_useful 0
Core_0_L1D_prefetch_useless 0
Core_0_L1D_prefetch_late 0
Core_0_L1D_average_miss_latency 170.15683

Core_0_L1D_rq_access 18508477
Core_0_L1D_rq_forward 0
Core_0_L1D_rq_merged 7935478
Core_0_L1D_rq_to_cache 10572999
Core_0_L1D_rq_full 0

Core_0_L1D_wq_access 2114394
Core_0_L1D_wq_forward 0
Core_0_L1D_wq_merged 128683
Core_0_L1D_wq_to_cache 1985711
Core_0_L1D_wq_full 0

Core_0_L1D_pq_access 0
Core_0_L1D_pq_forward 0
Core_0_L1D_pq_merged 0
Core_0_L1D_pq_to_cache 0
Core_0_L1D_pq_full 0

Core_0_L1D_acc_epochs 644242
Core_0_L1D_acc_level_0 644242
Core_0_L1D_acc_level_1 0
Core_0_L1D_acc_level_2 0
Core_0_L1D_acc_level_3 0
Core_0_L1D_acc_level_4 0
Core_0_L1D_acc_level_5 0
Core_0_L1D_acc_level_6 0
Core_0_L1D_acc_level_7 0
Core_0_L1D_acc_level_8 0
Core_0_L1D_acc_level_9 0

Core_0_L1I_total_access 9789770
Core_0_L1I_total_hit 9789766
Core_0_L1I_total_miss 4
Core_0_L1I_loads 9789770
Core_0_L1I_load_hit 9789766
Core_0_L1I_load_miss 4
Core_0_L1I_RFOs 0
Core_0_L1I_RFO_hit 0
Core_0_L1I_RFO_miss 0
Core_0_L1I_prefetches 0
Core_0_L1I_prefetch_hit 0
Core_0_L1I_prefetch_miss 0
Core_0_L1I_writebacks 0
Core_0_L1I_writeback_hit 0
Core_0_L1I_writeback_miss 0
Core_0_L1I_prefetch_requested 0
Core_0_L1I_prefetch_dropped 0
Core_0_L1I_prefetch_issued 0
Core_0_L1I_prefetch_filled 0
Core_0_L1I_prefetch_useful 0
Core_0_L1I_prefetch_useless 0
Core_0_L1I_prefetch_late 0
Core_0_L1I_average_miss_latency 240.25000

Core_0_L1I_rq_access 49999998
Core_0_L1I_rq_forward 0
Core_0_L1I_rq_merged 40210227
Core_0_L1I_rq_to_cache 9789771
Core_0_L1I_rq_full 0

Core_0_L1I_wq_access 0
Core_0_L1I_wq_forward 0
Core_0_L1I_wq_merged 0
Core_0_L1I_wq_to_cache 0
Core_0_L1I_wq_full 0

Core_0_L1I_pq_access 0
Core_0_L1I_pq_forward 0
Core_0_L1I_pq_merged 0
Core_0_L1I_pq_to_cache 0
Core_0_L1I_pq_full 0

Core_0_L1I_acc_epochs 644242
Core_0_L1I_acc_level_0 644242
Core_0_L1I_acc_level_1 0
Core_0_L1I_acc_level_2 0
Core_0_L1I_acc_level_3 0
Core_0_L1I_acc_level_4 0
Core_0_L1I_acc_level_5 0
Core_0_L1I_acc_level_6 0
Core_0_L1I_acc_level_7 0
Core_0_L1I_acc_level_8 0
Core_0_L1I_acc_level_9 0

Core_0_L2C_total_access 8198316
Core_0_L2C_total_hit 2607656
Core_0_L2C_total_miss 5590660
Core_0_L2C_loads 7096977
Core_0_L2C_load_hit 1576936
Core_0_L2C_load_miss 5520041
Core_0_L2C_RFOs 106609
Core_0_L2C_RFO_hit 36056
Core_0_L2C_RFO_miss 70553
Core_0_L2C_prefetches 0
Core_0_L2C_prefetch_hit 0
Core_0_L2C_prefetch_miss 0
Core_0_L2C_writebacks 994730
Core_0_L2C_writeback_hit 994664
Core_0_L2C_writeback_miss 66
Core_0_L2C_prefetch_requested 0
Core_0_L2C_prefetch_dropped 0
Core_0_L2C_prefetch_issued 0
Core_0_L2C_prefetch_filled 0
Core_0_L2C_prefetch_useful 0
Core_0_L2C_prefetch_useless 0
Core_0_L2C_prefetch_late 0
Core_0_L2C_average_miss_latency 198.60886

Core_0_L2C_rq_access 7203634
Core_0_L2C_rq_forward 0
Core_0_L2C_rq_merged 0
Core_0_L2C_rq_to_cache 7203586
Core_0_L2C_rq_full 0

Core_0_L2C_wq_access 994730
Core_0_L2C_wq_forward 48
Core_0_L2C_wq_merged 0
Core_0_L2C_wq_to_cache 994730
Core_0_L2C_wq_full 0

Core_0_L2C_pq_access 0
Core_0_L2C_pq_forward 0
Core_0_L2C_pq_merged 0
Core_0_L2C_pq_to_cache 0
Core_0_L2C_pq_full 0

Core_0_L2C_acc_epochs 644242
Core_0_L2C_acc_level_0 644242
Core_0_L2C_acc_level_1 0
Core_0_L2C_acc_level_2 0
Core_0_L2C_acc_level_3 0
Core_0_L2C_acc_level_4 0
Core_0_L2C_acc_level_5 0
Core_0_L2C_acc_level_6 0
Core_0_L2C_acc_level_7 0
Core_0_L2C_acc_level_8 0
Core_0_L2C_acc_level_9 0

Core_0_LLC_total_access 6343048
Core_0_LLC_total_hit 2949773
Core_0_LLC_total_miss 3393275
Core_0_LLC_loads 5520035
Core_0_LLC_load_hit 2447257
Core_0_LLC_load_miss 3072778
Core_0_LLC_RFOs 70553
Core_0_LLC_RFO_hit 33668
Core_0_LLC_RFO_miss 36885
Core_0_LLC_prefetches 0
Core_0_LLC_prefetch_hit 0
Core_0_LLC_prefetch_miss 0
Core_0_LLC_writebacks 752460
Core_0_LLC_writeback_hit 468848
Core_0_LLC_writeback_miss 283612
Core_0_LLC_prefetch_requested 0
Core_0_LLC_prefetch_dropped 0
Core_0_LLC_prefetch_issued 0
Core_0_LLC_prefetch_filled 0
Core_0_LLC_prefetch_useful 0
Core_0_LLC_prefetch_useless 0
Core_0_LLC_prefetch_late 0
Core_0_LLC_average_miss_latency 275.60149

Core_0_LLC_rq_access 5590594
Core_0_LLC_rq_forward 0
Core_0_LLC_rq_merged 0
Core_0_LLC_rq_to_cache 5590588
Core_0_LLC_rq_full 0

Core_0_LLC_wq_access 752460
Core_0_LLC_wq_forward 6
Core_0_LLC_wq_merged 0
Core_0_LLC_wq_to_cache 752460
Core_0_LLC_wq_full 0

Core_0_LLC_pq_access 0
Core_0_LLC_pq_forward 0
Core_0_LLC_pq_merged 0
Core_0_LLC_pq_to_cache 0
Core_0_LLC_pq_full 0

Core_0_LLC_acc_epochs 695922
Core_0_LLC_acc_level_0 695922
Core_0_LLC_acc_level_1 0
Core_0_LLC_acc_level_2 0
Core_0_LLC_acc_level_3 0
Core_0_LLC_acc_level_4 0
Core_0_LLC_acc_level_5 0
Core_0_LLC_acc_level_6 0
Core_0_LLC_acc_level_7 0
Core_0_LLC_acc_level_8 0
Core_0_LLC_acc_level_9 0

Core_0_major_page_fault 0
Core_0_minor_page_fault 56247

Channel_0_RQ_row_buffer_hit 70519
Channel_0_RQ_row_buffer_miss 3039094
Channel_0_WQ_row_buffer_hit 129606
Channel_0_WQ_row_buffer_miss 337064
Channel_0_WQ_full 0
Channel_0_dbus_congested 489633

avg_congested_cycle 11

DRAM_bw_pochs 2783685
DRAM_bw_level_0 2621717
DRAM_bw_level_1 161825
DRAM_bw_level_2 143
DRAM_bw_level_3 0
