*************************************************
   ChampSim Multicore Out-of-Order Simulator
   Last compiled: Apr  3 2025 20:54:34
*************************************************
parsing config file: /home/zir/Pythia/config/spp_dev2.ini

trace_0 /home/zir/ChampSim/ML-DPC/ChampSimTraces/spec17/605.mcf-s3.trace.xz
adding L2C_PREFETCHER: SPP_dev2
Initialize SIGNATURE TABLE
ST_SET: 1
ST_WAY: 256
ST_TAG_BIT: 16
ST_TAG_MASK: ffff

Initialize PATTERN TABLE
PT_SET: 512
PT_WAY: 4
SIG_DELTA_BIT: 7
C_SIG_BIT: 4
C_DELTA_BIT: 4

Initialize PREFETCH FILTER
FILTER_SET: 1024
fill_threshold: 90
pf_threshold: 40

Initialize SHIP state
warmup_instructions 10000000
simulation_instructions 50000000
champsim_seed 166
measure_ipc 0
measure_ipc_epoch 1000
measure_dram_bw 1
measure_dram_bw_epoch 256
measure_cache_acc 1
measure_cache_acc_epoch 1024
l1d_perfect 0
l2c_perfect 0
llc_perfect 0
l1d_semi_perfect 0
l2c_semi_perfect 0
llc_semi_perfect 0
semi_perfect_cache_page_buffer_size 64

num_cpus 1
cpu_freq 4000
dram_io_freq 2400
page_size 4096
block_size 64
max_read_per_cycle 8
max_fill_per_cycle 1
dram_channels 1
log2_dram_channels 0
dram_ranks 1
dram_banks 8
dram_rows 65536
dram_columns 128
dram_row_size 8
dram_size 4096
dram_pages 1048576

fetch_width 6
decode_width 6
exec_width 4
lq_width 2
sq_width 2
retire_width 4
scheduler_size 128
branch_mispredict_penalty 20
rob_size 256
lq_size 72
sq_size 56
num_instr_destinations_sparc 4
num_instr_destinations 2
num_instr_sources 4

itlb_set 16
itlb_way 8
itlb_rq_size 16
itlb_wq_size 16
itlb_pq_size 0
itlb_mshr_size 8
itlb_latency 1

dtlb_set 16
dtlb_way 4
dtlb_rq_size 16
dtlb_wq_size 16
dtlb_pq_size 0
dtlb_mshr_size 8
dtlb_latency 1

stlb_set 128
stlb_way 12
stlb_rq_size 32
stlb_wq_size 32
stlb_pq_size 0
stlb_mshr_size 16
stlb_latency 8

l1i_size 32
l1i_set 64
l1i_way 8
l1i_rq_size 64
l1i_wq_size 64
l1i_pq_size 8
l1i_mshr_size 8
l1i_latency 1

l1d_size 32
l1d_set 64
l1d_way 8
l1d_rq_size 64
l1d_wq_size 64
l1d_pq_size 8
l1d_mshr_size 16
l1d_latency 4

l2c_size 256
l2c_set 512
l2c_way 8
l2c_rq_size 32
l2c_wq_size 32
l2c_pq_size 32
l2c_mshr_size 32
l2c_latency 10

llc_size 2048
llc_set 2048
llc_way 16
llc_rq_size 32
llc_wq_size 32
llc_pq_size 32
llc_mshr_size 64
llc_latency 20

dram_channel_width 8
dram_wq_size 64
dram_rq_size 64
tRP 15
tRCD 15
tCAS 12.5
dram_dbus_turn_around_time 30
dram_write_high_wm 56
dram_write_low_wm 48
min_dram_writes_per_switch 16
dram_mtps 2400
dram_dbus_return_time 13


Heartbeat CPU  0 instructions:    1000000 cycles:    1085406 heartbeat IPC: 0.92131 cumulative IPC: 0.92131 (Simulation time: 0 hr 0 min 2 sec) 
Heartbeat CPU  0 instructions:    2000000 cycles:    2155349 heartbeat IPC: 0.93463 cumulative IPC: 0.92792 (Simulation time: 0 hr 0 min 4 sec) 
Heartbeat CPU  0 instructions:    3000000 cycles:    3230467 heartbeat IPC: 0.93013 cumulative IPC: 0.92866 (Simulation time: 0 hr 0 min 7 sec) 
Heartbeat CPU  0 instructions:    4000000 cycles:    4310859 heartbeat IPC: 0.92559 cumulative IPC: 0.92789 (Simulation time: 0 hr 0 min 9 sec) 
Heartbeat CPU  0 instructions:    5000003 cycles:    5414559 heartbeat IPC: 0.90605 cumulative IPC: 0.92344 (Simulation time: 0 hr 0 min 11 sec) 
Heartbeat CPU  0 instructions:    6000002 cycles:    6512363 heartbeat IPC: 0.91091 cumulative IPC: 0.92132 (Simulation time: 0 hr 0 min 13 sec) 
Heartbeat CPU  0 instructions:    7000000 cycles:    7615064 heartbeat IPC: 0.90686 cumulative IPC: 0.91923 (Simulation time: 0 hr 0 min 14 sec) 
Heartbeat CPU  0 instructions:    8000000 cycles:    8718772 heartbeat IPC: 0.90604 cumulative IPC: 0.91756 (Simulation time: 0 hr 0 min 16 sec) 
Heartbeat CPU  0 instructions:    9000000 cycles:    9798590 heartbeat IPC: 0.92608 cumulative IPC: 0.91850 (Simulation time: 0 hr 0 min 18 sec) 
Heartbeat CPU  0 instructions:   10000002 cycles:   10856698 heartbeat IPC: 0.94508 cumulative IPC: 0.92109 (Simulation time: 0 hr 0 min 21 sec) 

Warmup complete CPU  0 instructions:   10000002 cycles:   10856698 (Simulation time: 0 hr 0 min 21 sec) 

Heartbeat CPU  0 instructions:   11000002 cycles:   17503202 heartbeat IPC: 0.15046 cumulative IPC: 0.15046 (Simulation time: 0 hr 0 min 25 sec) 
Heartbeat CPU  0 instructions:   12000000 cycles:   24257591 heartbeat IPC: 0.14805 cumulative IPC: 0.14924 (Simulation time: 0 hr 0 min 29 sec) 
Heartbeat CPU  0 instructions:   13000002 cycles:   30985350 heartbeat IPC: 0.14864 cumulative IPC: 0.14904 (Simulation time: 0 hr 0 min 33 sec) 
Heartbeat CPU  0 instructions:   14000000 cycles:   37787748 heartbeat IPC: 0.14701 cumulative IPC: 0.14853 (Simulation time: 0 hr 0 min 38 sec) 
Heartbeat CPU  0 instructions:   15000001 cycles:   44495841 heartbeat IPC: 0.14907 cumulative IPC: 0.14864 (Simulation time: 0 hr 0 min 42 sec) 
Heartbeat CPU  0 instructions:   16000000 cycles:   51260768 heartbeat IPC: 0.14782 cumulative IPC: 0.14850 (Simulation time: 0 hr 0 min 47 sec) 
Heartbeat CPU  0 instructions:   17000003 cycles:   58208381 heartbeat IPC: 0.14393 cumulative IPC: 0.14783 (Simulation time: 0 hr 0 min 51 sec) 
Heartbeat CPU  0 instructions:   18000000 cycles:   64790697 heartbeat IPC: 0.15192 cumulative IPC: 0.14833 (Simulation time: 0 hr 0 min 55 sec) 
Heartbeat CPU  0 instructions:   19000000 cycles:   71265999 heartbeat IPC: 0.15443 cumulative IPC: 0.14898 (Simulation time: 0 hr 0 min 59 sec) 
Heartbeat CPU  0 instructions:   20000000 cycles:   77693098 heartbeat IPC: 0.15559 cumulative IPC: 0.14962 (Simulation time: 0 hr 1 min 3 sec) 
Heartbeat CPU  0 instructions:   21000000 cycles:   84166812 heartbeat IPC: 0.15447 cumulative IPC: 0.15005 (Simulation time: 0 hr 1 min 7 sec) 
Heartbeat CPU  0 instructions:   22000002 cycles:   90783444 heartbeat IPC: 0.15113 cumulative IPC: 0.15014 (Simulation time: 0 hr 1 min 11 sec) 
Heartbeat CPU  0 instructions:   23000001 cycles:   97342451 heartbeat IPC: 0.15246 cumulative IPC: 0.15031 (Simulation time: 0 hr 1 min 15 sec) 
Heartbeat CPU  0 instructions:   24000000 cycles:  103961402 heartbeat IPC: 0.15108 cumulative IPC: 0.15037 (Simulation time: 0 hr 1 min 19 sec) 
Heartbeat CPU  0 instructions:   25000000 cycles:  110634411 heartbeat IPC: 0.14986 cumulative IPC: 0.15033 (Simulation time: 0 hr 1 min 23 sec) 
Heartbeat CPU  0 instructions:   26000003 cycles:  117136925 heartbeat IPC: 0.15379 cumulative IPC: 0.15055 (Simulation time: 0 hr 1 min 27 sec) 
Heartbeat CPU  0 instructions:   27000002 cycles:  123579314 heartbeat IPC: 0.15522 cumulative IPC: 0.15081 (Simulation time: 0 hr 1 min 31 sec) 
Heartbeat CPU  0 instructions:   28000000 cycles:  130190413 heartbeat IPC: 0.15126 cumulative IPC: 0.15084 (Simulation time: 0 hr 1 min 35 sec) 
Heartbeat CPU  0 instructions:   29000001 cycles:  136819191 heartbeat IPC: 0.15086 cumulative IPC: 0.15084 (Simulation time: 0 hr 1 min 39 sec) 
Heartbeat CPU  0 instructions:   30000003 cycles:  143501668 heartbeat IPC: 0.14965 cumulative IPC: 0.15078 (Simulation time: 0 hr 1 min 44 sec) 
Heartbeat CPU  0 instructions:   31000002 cycles:  150058478 heartbeat IPC: 0.15251 cumulative IPC: 0.15086 (Simulation time: 0 hr 1 min 48 sec) 
Heartbeat CPU  0 instructions:   32000000 cycles:  156651643 heartbeat IPC: 0.15167 cumulative IPC: 0.15090 (Simulation time: 0 hr 1 min 52 sec) 
Heartbeat CPU  0 instructions:   33000002 cycles:  163389115 heartbeat IPC: 0.14842 cumulative IPC: 0.15079 (Simulation time: 0 hr 1 min 57 sec) 
Heartbeat CPU  0 instructions:   34000002 cycles:  169987479 heartbeat IPC: 0.15155 cumulative IPC: 0.15082 (Simulation time: 0 hr 2 min 1 sec) 
Heartbeat CPU  0 instructions:   35000000 cycles:  176598860 heartbeat IPC: 0.15125 cumulative IPC: 0.15084 (Simulation time: 0 hr 2 min 5 sec) 
Heartbeat CPU  0 instructions:   36000000 cycles:  183223441 heartbeat IPC: 0.15095 cumulative IPC: 0.15084 (Simulation time: 0 hr 2 min 9 sec) 
Heartbeat CPU  0 instructions:   37000001 cycles:  189878131 heartbeat IPC: 0.15027 cumulative IPC: 0.15082 (Simulation time: 0 hr 2 min 13 sec) 
Heartbeat CPU  0 instructions:   38000002 cycles:  196392209 heartbeat IPC: 0.15351 cumulative IPC: 0.15091 (Simulation time: 0 hr 2 min 17 sec) 
Heartbeat CPU  0 instructions:   39000003 cycles:  202979112 heartbeat IPC: 0.15182 cumulative IPC: 0.15095 (Simulation time: 0 hr 2 min 21 sec) 
Heartbeat CPU  0 instructions:   40000000 cycles:  209717908 heartbeat IPC: 0.14839 cumulative IPC: 0.15086 (Simulation time: 0 hr 2 min 25 sec) 
Heartbeat CPU  0 instructions:   41000002 cycles:  216231169 heartbeat IPC: 0.15353 cumulative IPC: 0.15094 (Simulation time: 0 hr 2 min 29 sec) 
Heartbeat CPU  0 instructions:   42000002 cycles:  222875167 heartbeat IPC: 0.15051 cumulative IPC: 0.15093 (Simulation time: 0 hr 2 min 33 sec) 
Heartbeat CPU  0 instructions:   43000002 cycles:  229503961 heartbeat IPC: 0.15086 cumulative IPC: 0.15093 (Simulation time: 0 hr 2 min 37 sec) 
Heartbeat CPU  0 instructions:   44000000 cycles:  236119762 heartbeat IPC: 0.15115 cumulative IPC: 0.15093 (Simulation time: 0 hr 2 min 41 sec) 
Heartbeat CPU  0 instructions:   45000001 cycles:  242793996 heartbeat IPC: 0.14983 cumulative IPC: 0.15090 (Simulation time: 0 hr 2 min 46 sec) 
Heartbeat CPU  0 instructions:   46000000 cycles:  249629632 heartbeat IPC: 0.14629 cumulative IPC: 0.15077 (Simulation time: 0 hr 2 min 49 sec) 
Heartbeat CPU  0 instructions:   47000000 cycles:  256246042 heartbeat IPC: 0.15114 cumulative IPC: 0.15078 (Simulation time: 0 hr 2 min 53 sec) 
Heartbeat CPU  0 instructions:   48000000 cycles:  262880921 heartbeat IPC: 0.15072 cumulative IPC: 0.15078 (Simulation time: 0 hr 2 min 57 sec) 
Heartbeat CPU  0 instructions:   49000000 cycles:  269514774 heartbeat IPC: 0.15074 cumulative IPC: 0.15078 (Simulation time: 0 hr 3 min 1 sec) 
Heartbeat CPU  0 instructions:   50000003 cycles:  276198487 heartbeat IPC: 0.14962 cumulative IPC: 0.15075 (Simulation time: 0 hr 3 min 6 sec) 
Heartbeat CPU  0 instructions:   51000000 cycles:  282873991 heartbeat IPC: 0.14980 cumulative IPC: 0.15073 (Simulation time: 0 hr 3 min 10 sec) 
Heartbeat CPU  0 instructions:   52000000 cycles:  289475207 heartbeat IPC: 0.15149 cumulative IPC: 0.15074 (Simulation time: 0 hr 3 min 14 sec) 
Heartbeat CPU  0 instructions:   53000000 cycles:  296090141 heartbeat IPC: 0.15117 cumulative IPC: 0.15075 (Simulation time: 0 hr 3 min 18 sec) 
Heartbeat CPU  0 instructions:   54000003 cycles:  302600259 heartbeat IPC: 0.15361 cumulative IPC: 0.15082 (Simulation time: 0 hr 3 min 22 sec) 
Heartbeat CPU  0 instructions:   55000002 cycles:  309135610 heartbeat IPC: 0.15301 cumulative IPC: 0.15087 (Simulation time: 0 hr 3 min 26 sec) 
Heartbeat CPU  0 instructions:   56000000 cycles:  315883100 heartbeat IPC: 0.14820 cumulative IPC: 0.15081 (Simulation time: 0 hr 3 min 30 sec) 
Heartbeat CPU  0 instructions:   57000002 cycles:  322465700 heartbeat IPC: 0.15192 cumulative IPC: 0.15083 (Simulation time: 0 hr 3 min 34 sec) 
Heartbeat CPU  0 instructions:   58000000 cycles:  329213204 heartbeat IPC: 0.14820 cumulative IPC: 0.15077 (Simulation time: 0 hr 3 min 38 sec) 
Heartbeat CPU  0 instructions:   59000000 cycles:  335930821 heartbeat IPC: 0.14886 cumulative IPC: 0.15073 (Simulation time: 0 hr 3 min 42 sec) 
Heartbeat CPU  0 instructions:   60000000 cycles:  342457632 heartbeat IPC: 0.15321 cumulative IPC: 0.15078 (Simulation time: 0 hr 3 min 46 sec) 
Finished CPU 0 instructions: 50000003 cycles: 331600963 cumulative IPC: 0.15078 (Simulation time: 0 hr 3 min 46 sec) 

ChampSim completed all CPUs

[ROI Statistics]
Core_0_instructions 50000003
Core_0_cycles 331600963
Core_0_IPC 0.15078

Core_0_branch_prediction_accuracy 92.35942
Core_0_branch_MPKI 6.15474
Core_0_average_ROB_occupancy_at_mispredict 116.97272

Core_0_L1D_total_access 25670005
Core_0_L1D_total_hit 21161073
Core_0_L1D_total_miss 4508932
Core_0_L1D_loads 15816156
Core_0_L1D_load_hit 13493626
Core_0_L1D_load_miss 2322530
Core_0_L1D_RFOs 9853849
Core_0_L1D_RFO_hit 7667447
Core_0_L1D_RFO_miss 2186402
Core_0_L1D_prefetches 0
Core_0_L1D_prefetch_hit 0
Core_0_L1D_prefetch_miss 0
Core_0_L1D_writebacks 0
Core_0_L1D_writeback_hit 0
Core_0_L1D_writeback_miss 0
Core_0_L1D_prefetch_requested 0
Core_0_L1D_prefetch_dropped 0
Core_0_L1D_prefetch_issued 0
Core_0_L1D_prefetch_filled 0
Core_0_L1D_prefetch_useful 0
Core_0_L1D_prefetch_useless 0
Core_0_L1D_prefetch_late 0
Core_0_L1D_average_miss_latency 285.03352

Core_0_L1D_rq_access 19920552
Core_0_L1D_rq_forward 0
Core_0_L1D_rq_merged 3770198
Core_0_L1D_rq_to_cache 16150136
Core_0_L1D_rq_full 0

Core_0_L1D_wq_access 17491234
Core_0_L1D_wq_forward 218
Core_0_L1D_wq_merged 0
Core_0_L1D_wq_to_cache 17491234
Core_0_L1D_wq_full 0

Core_0_L1D_pq_access 0
Core_0_L1D_pq_forward 0
Core_0_L1D_pq_merged 0
Core_0_L1D_pq_to_cache 0
Core_0_L1D_pq_full 0

Core_0_L1D_acc_epochs 219163
Core_0_L1D_acc_level_0 219163
Core_0_L1D_acc_level_1 0
Core_0_L1D_acc_level_2 0
Core_0_L1D_acc_level_3 0
Core_0_L1D_acc_level_4 0
Core_0_L1D_acc_level_5 0
Core_0_L1D_acc_level_6 0
Core_0_L1D_acc_level_7 0
Core_0_L1D_acc_level_8 0
Core_0_L1D_acc_level_9 0

Core_0_L1I_total_access 10858068
Core_0_L1I_total_hit 10858068
Core_0_L1I_total_miss 0
Core_0_L1I_loads 10858068
Core_0_L1I_load_hit 10858068
Core_0_L1I_load_miss 0
Core_0_L1I_RFOs 0
Core_0_L1I_RFO_hit 0
Core_0_L1I_RFO_miss 0
Core_0_L1I_prefetches 0
Core_0_L1I_prefetch_hit 0
Core_0_L1I_prefetch_miss 0
Core_0_L1I_writebacks 0
Core_0_L1I_writeback_hit 0
Core_0_L1I_writeback_miss 0
Core_0_L1I_prefetch_requested 0
Core_0_L1I_prefetch_dropped 0
Core_0_L1I_prefetch_issued 0
Core_0_L1I_prefetch_filled 0
Core_0_L1I_prefetch_useful 0
Core_0_L1I_prefetch_useless 0
Core_0_L1I_prefetch_late 0
Core_0_L1I_average_miss_latency -nan

Core_0_L1I_rq_access 49999769
Core_0_L1I_rq_forward 0
Core_0_L1I_rq_merged 39141701
Core_0_L1I_rq_to_cache 10858068
Core_0_L1I_rq_full 0

Core_0_L1I_wq_access 0
Core_0_L1I_wq_forward 0
Core_0_L1I_wq_merged 0
Core_0_L1I_wq_to_cache 0
Core_0_L1I_wq_full 0

Core_0_L1I_pq_access 0
Core_0_L1I_pq_forward 0
Core_0_L1I_pq_merged 0
Core_0_L1I_pq_to_cache 0
Core_0_L1I_pq_full 0

Core_0_L1I_acc_epochs 219163
Core_0_L1I_acc_level_0 219163
Core_0_L1I_acc_level_1 0
Core_0_L1I_acc_level_2 0
Core_0_L1I_acc_level_3 0
Core_0_L1I_acc_level_4 0
Core_0_L1I_acc_level_5 0
Core_0_L1I_acc_level_6 0
Core_0_L1I_acc_level_7 0
Core_0_L1I_acc_level_8 0
Core_0_L1I_acc_level_9 0

Core_0_L2C_total_access 9274120
Core_0_L2C_total_hit 4931740
Core_0_L2C_total_miss 4342380
Core_0_L2C_loads 2322490
Core_0_L2C_load_hit 409676
Core_0_L2C_load_miss 1912814
Core_0_L2C_RFOs 2186402
Core_0_L2C_RFO_hit 724
Core_0_L2C_RFO_miss 2185678
Core_0_L2C_prefetches 256297
Core_0_L2C_prefetch_hit 14574
Core_0_L2C_prefetch_miss 241723
Core_0_L2C_writebacks 4508931
Core_0_L2C_writeback_hit 4506766
Core_0_L2C_writeback_miss 2165
Core_0_L2C_prefetch_requested 4359483
Core_0_L2C_prefetch_dropped 0
Core_0_L2C_prefetch_issued 4359483
Core_0_L2C_prefetch_filled 329080
Core_0_L2C_prefetch_useful 319341
Core_0_L2C_prefetch_useless 9733
Core_0_L2C_prefetch_late 79814
Core_0_L2C_average_miss_latency 277.47369

Core_0_L2C_rq_access 4508935
Core_0_L2C_rq_forward 0
Core_0_L2C_rq_merged 0
Core_0_L2C_rq_to_cache 4508895
Core_0_L2C_rq_full 0

Core_0_L2C_wq_access 4508932
Core_0_L2C_wq_forward 40
Core_0_L2C_wq_merged 0
Core_0_L2C_wq_to_cache 4508932
Core_0_L2C_wq_full 0

Core_0_L2C_pq_access 4359483
Core_0_L2C_pq_forward 0
Core_0_L2C_pq_merged 1310104
Core_0_L2C_pq_to_cache 3049379
Core_0_L2C_pq_full 0

Core_0_L2C_acc_epochs 219163
Core_0_L2C_acc_level_0 7176
Core_0_L2C_acc_level_1 11988
Core_0_L2C_acc_level_2 14848
Core_0_L2C_acc_level_3 20640
Core_0_L2C_acc_level_4 17772
Core_0_L2C_acc_level_5 21682
Core_0_L2C_acc_level_6 23824
Core_0_L2C_acc_level_7 20857
Core_0_L2C_acc_level_8 19887
Core_0_L2C_acc_level_9 60489

Core_0_LLC_total_access 9914401
Core_0_LLC_total_hit 4270579
Core_0_LLC_total_miss 5643822
Core_0_LLC_loads 1834484
Core_0_LLC_load_hit 1343765
Core_0_LLC_load_miss 490719
Core_0_LLC_RFOs 2185678
Core_0_LLC_RFO_hit 12101
Core_0_LLC_RFO_miss 2173577
Core_0_LLC_prefetches 1561420
Core_0_LLC_prefetch_hit 660384
Core_0_LLC_prefetch_miss 901036
Core_0_LLC_writebacks 4332819
Core_0_LLC_writeback_hit 2254329
Core_0_LLC_writeback_miss 2078490
Core_0_LLC_prefetch_requested 0
Core_0_LLC_prefetch_dropped 0
Core_0_LLC_prefetch_issued 0
Core_0_LLC_prefetch_filled 1134821
Core_0_LLC_prefetch_useful 710592
Core_0_LLC_prefetch_useless 420526
Core_0_LLC_prefetch_late 138433
Core_0_LLC_average_miss_latency 232.88074

Core_0_LLC_rq_access 4020200
Core_0_LLC_rq_forward 0
Core_0_LLC_rq_merged 0
Core_0_LLC_rq_to_cache 4020164
Core_0_LLC_rq_full 0

Core_0_LLC_wq_access 4332819
Core_0_LLC_wq_forward 36
Core_0_LLC_wq_merged 0
Core_0_LLC_wq_to_cache 4332819
Core_0_LLC_wq_full 0

Core_0_LLC_pq_access 2588101
Core_0_LLC_pq_forward 0
Core_0_LLC_pq_merged 81062
Core_0_LLC_pq_to_cache 2507039
Core_0_LLC_pq_full 0

Core_0_LLC_acc_epochs 334432
Core_0_LLC_acc_level_0 2608
Core_0_LLC_acc_level_1 10806
Core_0_LLC_acc_level_2 19233
Core_0_LLC_acc_level_3 24836
Core_0_LLC_acc_level_4 27707
Core_0_LLC_acc_level_5 36802
Core_0_LLC_acc_level_6 40444
Core_0_LLC_acc_level_7 33553
Core_0_LLC_acc_level_8 29974
Core_0_LLC_acc_level_9 108469

Core_0_major_page_fault 0
Core_0_minor_page_fault 223664

spp.pref.total 4359483
spp.pref.at_L2 647025
spp.pref.at_LLC 3712458

spp.depth.max 9
spp.depth.min 0
spp.depth.avg 1

spp.breadth.max 2
spp.breadth.min 0
spp.breadth.avg 0

delta_1 3931437
delta_2 315925
delta_-1 158680
delta_-5 44
delta_-8 14
delta_-3 10
delta_-2 9
delta_-6 6
delta_-13 6
delta_-10 2
delta_-4 2
delta_-7 1

depth_1_delta_1 1153630
depth_1_delta_2 161510
depth_1_delta_-1 158680
depth_1_delta_-5 44
depth_1_delta_-8 13
depth_1_delta_-3 10
depth_1_delta_-2 9
depth_1_delta_-6 6
depth_1_delta_-13 6
depth_1_delta_-10 2
depth_1_delta_-4 2
depth_1_delta_-7 1
depth_2_delta_1 1012632
depth_2_delta_2 154415
depth_2_delta_-8 1
depth_3_delta_1 790006
depth_4_delta_1 536592
depth_5_delta_1 304144
depth_6_delta_1 134313
depth_7_delta_1 107
depth_8_delta_1 10
depth_9_delta_1 3

Channel_0_RQ_row_buffer_hit 59564
Channel_0_RQ_row_buffer_miss 3505544
Channel_0_WQ_row_buffer_hit 368632
Channel_0_WQ_row_buffer_miss 3176950
Channel_0_WQ_full 0
Channel_0_dbus_congested 4211144

avg_congested_cycle 11

DRAM_bw_pochs 1337726
DRAM_bw_level_0 657290
DRAM_bw_level_1 599406
DRAM_bw_level_2 80962
DRAM_bw_level_3 68
