*************************************************
   ChampSim Multicore Out-of-Order Simulator
   Last compiled: Apr  3 2025 20:54:34
*************************************************
parsing config file: /home/zir/Pythia/config/mlop.ini

trace_0 /home/zir/ChampSim/ML-DPC/ChampSimTraces/spec17/654.roms-s7.trace.xz
adding L2C_PREFETCHER: MLOP
Initialize SHIP state
warmup_instructions 10000000
simulation_instructions 50000000
champsim_seed 170
measure_ipc 0
measure_ipc_epoch 1000
measure_dram_bw 1
measure_dram_bw_epoch 256
measure_cache_acc 1
measure_cache_acc_epoch 1024
l1d_perfect 0
l2c_perfect 0
llc_perfect 0
l1d_semi_perfect 0
l2c_semi_perfect 0
llc_semi_perfect 0
semi_perfect_cache_page_buffer_size 64

num_cpus 1
cpu_freq 4000
dram_io_freq 2400
page_size 4096
block_size 64
max_read_per_cycle 8
max_fill_per_cycle 1
dram_channels 1
log2_dram_channels 0
dram_ranks 1
dram_banks 8
dram_rows 65536
dram_columns 128
dram_row_size 8
dram_size 4096
dram_pages 1048576

fetch_width 6
decode_width 6
exec_width 4
lq_width 2
sq_width 2
retire_width 4
scheduler_size 128
branch_mispredict_penalty 20
rob_size 256
lq_size 72
sq_size 56
num_instr_destinations_sparc 4
num_instr_destinations 2
num_instr_sources 4

itlb_set 16
itlb_way 8
itlb_rq_size 16
itlb_wq_size 16
itlb_pq_size 0
itlb_mshr_size 8
itlb_latency 1

dtlb_set 16
dtlb_way 4
dtlb_rq_size 16
dtlb_wq_size 16
dtlb_pq_size 0
dtlb_mshr_size 8
dtlb_latency 1

stlb_set 128
stlb_way 12
stlb_rq_size 32
stlb_wq_size 32
stlb_pq_size 0
stlb_mshr_size 16
stlb_latency 8

l1i_size 32
l1i_set 64
l1i_way 8
l1i_rq_size 64
l1i_wq_size 64
l1i_pq_size 8
l1i_mshr_size 8
l1i_latency 1

l1d_size 32
l1d_set 64
l1d_way 8
l1d_rq_size 64
l1d_wq_size 64
l1d_pq_size 8
l1d_mshr_size 16
l1d_latency 4

l2c_size 256
l2c_set 512
l2c_way 8
l2c_rq_size 32
l2c_wq_size 32
l2c_pq_size 32
l2c_mshr_size 32
l2c_latency 10

llc_size 2048
llc_set 2048
llc_way 16
llc_rq_size 32
llc_wq_size 32
llc_pq_size 32
llc_mshr_size 64
llc_latency 20

dram_channel_width 8
dram_wq_size 64
dram_rq_size 64
tRP 15
tRCD 15
tCAS 12.5
dram_dbus_turn_around_time 30
dram_write_high_wm 56
dram_write_low_wm 48
min_dram_writes_per_switch 16
dram_mtps 2400
dram_dbus_return_time 13

mlop_pref_degree 16
mlop_num_updates 500
mlop_l1d_thresh 2
mlop_l2c_thresh 0.75
mlop_llc_thresh 0.3
mlop_debug_level 0
mlop_blocks_in_cache 4096
mlop_blocks_in_zone 64
mlop_amt_size 2048
mlop_PF_DEGREE 16
mlop_NUM_UPDATES 500
mlop_L1D_THRESH 1000
mlop_L2C_THRESH 375
mlop_LLC_THRESH 150
mlop_ORIGIN 63
mlop_MAX_OFFSET 63
mlop_MIN_OFFSET -63
mlop_ORIGIN 63
mlop_NUM_OFFSETS 127


Heartbeat CPU  0 instructions:    1000003 cycles:     530039 heartbeat IPC: 1.88666 cumulative IPC: 1.88666 (Simulation time: 0 hr 0 min 2 sec) 
Heartbeat CPU  0 instructions:    2000001 cycles:    1060110 heartbeat IPC: 1.88654 cumulative IPC: 1.88660 (Simulation time: 0 hr 0 min 4 sec) 
Heartbeat CPU  0 instructions:    3000001 cycles:    1590209 heartbeat IPC: 1.88644 cumulative IPC: 1.88655 (Simulation time: 0 hr 0 min 6 sec) 
Heartbeat CPU  0 instructions:    4000000 cycles:    2120654 heartbeat IPC: 1.88521 cumulative IPC: 1.88621 (Simulation time: 0 hr 0 min 7 sec) 
Heartbeat CPU  0 instructions:    5000000 cycles:    2535513 heartbeat IPC: 2.41046 cumulative IPC: 1.97199 (Simulation time: 0 hr 0 min 9 sec) 
Heartbeat CPU  0 instructions:    6000000 cycles:    2951665 heartbeat IPC: 2.40297 cumulative IPC: 2.03275 (Simulation time: 0 hr 0 min 10 sec) 
Heartbeat CPU  0 instructions:    7000003 cycles:    3364770 heartbeat IPC: 2.42070 cumulative IPC: 2.08038 (Simulation time: 0 hr 0 min 11 sec) 
Heartbeat CPU  0 instructions:    8000000 cycles:    3779996 heartbeat IPC: 2.40832 cumulative IPC: 2.11640 (Simulation time: 0 hr 0 min 12 sec) 
Heartbeat CPU  0 instructions:    9000001 cycles:    4190226 heartbeat IPC: 2.43766 cumulative IPC: 2.14786 (Simulation time: 0 hr 0 min 13 sec) 
Heartbeat CPU  0 instructions:   10000001 cycles:    4599731 heartbeat IPC: 2.44197 cumulative IPC: 2.17404 (Simulation time: 0 hr 0 min 14 sec) 

Warmup complete CPU  0 instructions:   10000001 cycles:    4599731 (Simulation time: 0 hr 0 min 14 sec) 

Heartbeat CPU  0 instructions:   11000002 cycles:    5410751 heartbeat IPC: 1.23302 cumulative IPC: 1.23302 (Simulation time: 0 hr 0 min 15 sec) 
Heartbeat CPU  0 instructions:   12000000 cycles:    6243107 heartbeat IPC: 1.20141 cumulative IPC: 1.21701 (Simulation time: 0 hr 0 min 17 sec) 
Heartbeat CPU  0 instructions:   13000001 cycles:    7053633 heartbeat IPC: 1.23377 cumulative IPC: 1.22254 (Simulation time: 0 hr 0 min 19 sec) 
Heartbeat CPU  0 instructions:   14000002 cycles:    7820158 heartbeat IPC: 1.30459 cumulative IPC: 1.24207 (Simulation time: 0 hr 0 min 20 sec) 
Heartbeat CPU  0 instructions:   15000001 cycles:    8590778 heartbeat IPC: 1.29766 cumulative IPC: 1.25280 (Simulation time: 0 hr 0 min 22 sec) 
Heartbeat CPU  0 instructions:   16000000 cycles:    9357142 heartbeat IPC: 1.30486 cumulative IPC: 1.26119 (Simulation time: 0 hr 0 min 24 sec) 
Heartbeat CPU  0 instructions:   17000002 cycles:   10117361 heartbeat IPC: 1.31541 cumulative IPC: 1.26866 (Simulation time: 0 hr 0 min 25 sec) 
Heartbeat CPU  0 instructions:   18000001 cycles:   10895443 heartbeat IPC: 1.28521 cumulative IPC: 1.27071 (Simulation time: 0 hr 0 min 27 sec) 
Heartbeat CPU  0 instructions:   19000000 cycles:   12100694 heartbeat IPC: 0.82970 cumulative IPC: 1.19985 (Simulation time: 0 hr 0 min 29 sec) 
Heartbeat CPU  0 instructions:   20000000 cycles:   13349541 heartbeat IPC: 0.80074 cumulative IPC: 1.14288 (Simulation time: 0 hr 0 min 32 sec) 
Heartbeat CPU  0 instructions:   21000003 cycles:   14599234 heartbeat IPC: 0.80020 cumulative IPC: 1.10005 (Simulation time: 0 hr 0 min 34 sec) 
Heartbeat CPU  0 instructions:   22000003 cycles:   15790846 heartbeat IPC: 0.83920 cumulative IPC: 1.07228 (Simulation time: 0 hr 0 min 36 sec) 
Heartbeat CPU  0 instructions:   23000003 cycles:   16978546 heartbeat IPC: 0.84196 cumulative IPC: 1.05018 (Simulation time: 0 hr 0 min 38 sec) 
Heartbeat CPU  0 instructions:   24000000 cycles:   18177372 heartbeat IPC: 0.83415 cumulative IPC: 1.03111 (Simulation time: 0 hr 0 min 41 sec) 
Heartbeat CPU  0 instructions:   25000002 cycles:   19564256 heartbeat IPC: 0.72104 cumulative IPC: 1.00237 (Simulation time: 0 hr 0 min 43 sec) 
Heartbeat CPU  0 instructions:   26000001 cycles:   20804380 heartbeat IPC: 0.80637 cumulative IPC: 0.98737 (Simulation time: 0 hr 0 min 46 sec) 
Heartbeat CPU  0 instructions:   27000001 cycles:   21977719 heartbeat IPC: 0.85227 cumulative IPC: 0.97825 (Simulation time: 0 hr 0 min 48 sec) 
Heartbeat CPU  0 instructions:   28000000 cycles:   23149740 heartbeat IPC: 0.85323 cumulative IPC: 0.97035 (Simulation time: 0 hr 0 min 51 sec) 
Heartbeat CPU  0 instructions:   29000002 cycles:   24324358 heartbeat IPC: 0.85134 cumulative IPC: 0.96326 (Simulation time: 0 hr 0 min 53 sec) 
Heartbeat CPU  0 instructions:   30000002 cycles:   25494789 heartbeat IPC: 0.85439 cumulative IPC: 0.95716 (Simulation time: 0 hr 0 min 55 sec) 
Heartbeat CPU  0 instructions:   31000001 cycles:   26651617 heartbeat IPC: 0.86443 cumulative IPC: 0.95230 (Simulation time: 0 hr 0 min 58 sec) 
Heartbeat CPU  0 instructions:   32000000 cycles:   27828782 heartbeat IPC: 0.84950 cumulative IPC: 0.94709 (Simulation time: 0 hr 1 min 0 sec) 
Heartbeat CPU  0 instructions:   33000001 cycles:   28938696 heartbeat IPC: 0.90097 cumulative IPC: 0.94499 (Simulation time: 0 hr 1 min 2 sec) 
Heartbeat CPU  0 instructions:   34000002 cycles:   30075414 heartbeat IPC: 0.87973 cumulative IPC: 0.94207 (Simulation time: 0 hr 1 min 5 sec) 
Heartbeat CPU  0 instructions:   35000002 cycles:   31282747 heartbeat IPC: 0.82827 cumulative IPC: 0.93693 (Simulation time: 0 hr 1 min 7 sec) 
Heartbeat CPU  0 instructions:   36000000 cycles:   32426780 heartbeat IPC: 0.87410 cumulative IPC: 0.93434 (Simulation time: 0 hr 1 min 8 sec) 
Heartbeat CPU  0 instructions:   37000000 cycles:   33639021 heartbeat IPC: 0.82492 cumulative IPC: 0.92977 (Simulation time: 0 hr 1 min 10 sec) 
Heartbeat CPU  0 instructions:   38000000 cycles:   34957568 heartbeat IPC: 0.75841 cumulative IPC: 0.92233 (Simulation time: 0 hr 1 min 13 sec) 
Heartbeat CPU  0 instructions:   39000002 cycles:   36295335 heartbeat IPC: 0.74752 cumulative IPC: 0.91495 (Simulation time: 0 hr 1 min 15 sec) 
Heartbeat CPU  0 instructions:   40000000 cycles:   37605550 heartbeat IPC: 0.76323 cumulative IPC: 0.90893 (Simulation time: 0 hr 1 min 17 sec) 
Heartbeat CPU  0 instructions:   41000003 cycles:   38781715 heartbeat IPC: 0.85022 cumulative IPC: 0.90691 (Simulation time: 0 hr 1 min 20 sec) 
Heartbeat CPU  0 instructions:   42000003 cycles:   40033357 heartbeat IPC: 0.79895 cumulative IPC: 0.90310 (Simulation time: 0 hr 1 min 22 sec) 
Heartbeat CPU  0 instructions:   43000000 cycles:   41258082 heartbeat IPC: 0.81651 cumulative IPC: 0.90020 (Simulation time: 0 hr 1 min 24 sec) 
Heartbeat CPU  0 instructions:   44000000 cycles:   42345092 heartbeat IPC: 0.91995 cumulative IPC: 0.90077 (Simulation time: 0 hr 1 min 26 sec) 
Heartbeat CPU  0 instructions:   45000003 cycles:   43345549 heartbeat IPC: 0.99955 cumulative IPC: 0.90332 (Simulation time: 0 hr 1 min 29 sec) 
Heartbeat CPU  0 instructions:   46000001 cycles:   44320746 heartbeat IPC: 1.02543 cumulative IPC: 0.90632 (Simulation time: 0 hr 1 min 31 sec) 
Heartbeat CPU  0 instructions:   47000001 cycles:   45233578 heartbeat IPC: 1.09549 cumulative IPC: 0.91057 (Simulation time: 0 hr 1 min 33 sec) 
Heartbeat CPU  0 instructions:   48000000 cycles:   46142281 heartbeat IPC: 1.10047 cumulative IPC: 0.91472 (Simulation time: 0 hr 1 min 35 sec) 
Heartbeat CPU  0 instructions:   49000000 cycles:   47044297 heartbeat IPC: 1.10863 cumulative IPC: 0.91885 (Simulation time: 0 hr 1 min 37 sec) 
Heartbeat CPU  0 instructions:   50000000 cycles:   47936144 heartbeat IPC: 1.12127 cumulative IPC: 0.92301 (Simulation time: 0 hr 1 min 40 sec) 
Heartbeat CPU  0 instructions:   51000002 cycles:   48892934 heartbeat IPC: 1.04516 cumulative IPC: 0.92565 (Simulation time: 0 hr 1 min 42 sec) 
Heartbeat CPU  0 instructions:   52000000 cycles:   50212208 heartbeat IPC: 0.75799 cumulative IPC: 0.92080 (Simulation time: 0 hr 1 min 44 sec) 
Heartbeat CPU  0 instructions:   53000002 cycles:   51652554 heartbeat IPC: 0.69428 cumulative IPC: 0.91387 (Simulation time: 0 hr 1 min 46 sec) 
Heartbeat CPU  0 instructions:   54000002 cycles:   52851500 heartbeat IPC: 0.83407 cumulative IPC: 0.91188 (Simulation time: 0 hr 1 min 48 sec) 
Heartbeat CPU  0 instructions:   55000000 cycles:   53969170 heartbeat IPC: 0.89472 cumulative IPC: 0.91150 (Simulation time: 0 hr 1 min 50 sec) 
Heartbeat CPU  0 instructions:   56000000 cycles:   55477902 heartbeat IPC: 0.66281 cumulative IPC: 0.90412 (Simulation time: 0 hr 1 min 53 sec) 
Heartbeat CPU  0 instructions:   57000003 cycles:   56902526 heartbeat IPC: 0.70194 cumulative IPC: 0.89861 (Simulation time: 0 hr 1 min 55 sec) 
Heartbeat CPU  0 instructions:   58000002 cycles:   58276684 heartbeat IPC: 0.72772 cumulative IPC: 0.89424 (Simulation time: 0 hr 1 min 57 sec) 
Heartbeat CPU  0 instructions:   59000002 cycles:   59670677 heartbeat IPC: 0.71736 cumulative IPC: 0.88976 (Simulation time: 0 hr 2 min 0 sec) 
Heartbeat CPU  0 instructions:   60000000 cycles:   60907350 heartbeat IPC: 0.80862 cumulative IPC: 0.88798 (Simulation time: 0 hr 2 min 2 sec) 
Finished CPU 0 instructions: 50000000 cycles: 56307627 cumulative IPC: 0.88798 (Simulation time: 0 hr 2 min 2 sec) 

ChampSim completed all CPUs

[ROI Statistics]
Core_0_instructions 50000000
Core_0_cycles 56307627
Core_0_IPC 0.88798

Core_0_branch_prediction_accuracy 99.83880
Core_0_branch_MPKI 0.10468
Core_0_average_ROB_occupancy_at_mispredict 251.77264

Core_0_L1D_total_access 11596066
Core_0_L1D_total_hit 10284517
Core_0_L1D_total_miss 1311549
Core_0_L1D_loads 10190311
Core_0_L1D_load_hit 9147143
Core_0_L1D_load_miss 1043168
Core_0_L1D_RFOs 1405755
Core_0_L1D_RFO_hit 1137374
Core_0_L1D_RFO_miss 268381
Core_0_L1D_prefetches 0
Core_0_L1D_prefetch_hit 0
Core_0_L1D_prefetch_miss 0
Core_0_L1D_writebacks 0
Core_0_L1D_writeback_hit 0
Core_0_L1D_writeback_miss 0
Core_0_L1D_prefetch_requested 0
Core_0_L1D_prefetch_dropped 0
Core_0_L1D_prefetch_issued 0
Core_0_L1D_prefetch_filled 0
Core_0_L1D_prefetch_useful 0
Core_0_L1D_prefetch_useless 0
Core_0_L1D_prefetch_late 0
Core_0_L1D_average_miss_latency 140.25306

Core_0_L1D_rq_access 18802895
Core_0_L1D_rq_forward 0
Core_0_L1D_rq_merged 8052334
Core_0_L1D_rq_to_cache 10750554
Core_0_L1D_rq_full 0

Core_0_L1D_wq_access 3113152
Core_0_L1D_wq_forward 7
Core_0_L1D_wq_merged 0
Core_0_L1D_wq_to_cache 3113152
Core_0_L1D_wq_full 0

Core_0_L1D_pq_access 0
Core_0_L1D_pq_forward 0
Core_0_L1D_pq_merged 0
Core_0_L1D_pq_to_cache 0
Core_0_L1D_pq_full 0

Core_0_L1D_acc_epochs 56771
Core_0_L1D_acc_level_0 56771
Core_0_L1D_acc_level_1 0
Core_0_L1D_acc_level_2 0
Core_0_L1D_acc_level_3 0
Core_0_L1D_acc_level_4 0
Core_0_L1D_acc_level_5 0
Core_0_L1D_acc_level_6 0
Core_0_L1D_acc_level_7 0
Core_0_L1D_acc_level_8 0
Core_0_L1D_acc_level_9 0

Core_0_L1I_total_access 11954167
Core_0_L1I_total_hit 11954101
Core_0_L1I_total_miss 66
Core_0_L1I_loads 11954167
Core_0_L1I_load_hit 11954101
Core_0_L1I_load_miss 66
Core_0_L1I_RFOs 0
Core_0_L1I_RFO_hit 0
Core_0_L1I_RFO_miss 0
Core_0_L1I_prefetches 0
Core_0_L1I_prefetch_hit 0
Core_0_L1I_prefetch_miss 0
Core_0_L1I_writebacks 0
Core_0_L1I_writeback_hit 0
Core_0_L1I_writeback_miss 0
Core_0_L1I_prefetch_requested 0
Core_0_L1I_prefetch_dropped 0
Core_0_L1I_prefetch_issued 0
Core_0_L1I_prefetch_filled 0
Core_0_L1I_prefetch_useful 0
Core_0_L1I_prefetch_useless 0
Core_0_L1I_prefetch_late 0
Core_0_L1I_average_miss_latency 352.63636

Core_0_L1I_rq_access 50000007
Core_0_L1I_rq_forward 0
Core_0_L1I_rq_merged 38045630
Core_0_L1I_rq_to_cache 11954377
Core_0_L1I_rq_full 0

Core_0_L1I_wq_access 0
Core_0_L1I_wq_forward 0
Core_0_L1I_wq_merged 0
Core_0_L1I_wq_to_cache 0
Core_0_L1I_wq_full 0

Core_0_L1I_pq_access 0
Core_0_L1I_pq_forward 0
Core_0_L1I_pq_merged 0
Core_0_L1I_pq_to_cache 0
Core_0_L1I_pq_full 0

Core_0_L1I_acc_epochs 56771
Core_0_L1I_acc_level_0 56771
Core_0_L1I_acc_level_1 0
Core_0_L1I_acc_level_2 0
Core_0_L1I_acc_level_3 0
Core_0_L1I_acc_level_4 0
Core_0_L1I_acc_level_5 0
Core_0_L1I_acc_level_6 0
Core_0_L1I_acc_level_7 0
Core_0_L1I_acc_level_8 0
Core_0_L1I_acc_level_9 0

Core_0_L2C_total_access 2684173
Core_0_L2C_total_hit 1384068
Core_0_L2C_total_miss 1300105
Core_0_L2C_loads 1043234
Core_0_L2C_load_hit 979474
Core_0_L2C_load_miss 63760
Core_0_L2C_RFOs 268381
Core_0_L2C_RFO_hit 1
Core_0_L2C_RFO_miss 268380
Core_0_L2C_prefetches 967968
Core_0_L2C_prefetch_hit 6
Core_0_L2C_prefetch_miss 967962
Core_0_L2C_writebacks 404590
Core_0_L2C_writeback_hit 404587
Core_0_L2C_writeback_miss 3
Core_0_L2C_prefetch_requested 1924738
Core_0_L2C_prefetch_dropped 0
Core_0_L2C_prefetch_issued 1924738
Core_0_L2C_prefetch_filled 1077557
Core_0_L2C_prefetch_useful 978309
Core_0_L2C_prefetch_useless 98992
Core_0_L2C_prefetch_late 13684
Core_0_L2C_average_miss_latency 273.22898

Core_0_L2C_rq_access 1311617
Core_0_L2C_rq_forward 0
Core_0_L2C_rq_merged 0
Core_0_L2C_rq_to_cache 1311617
Core_0_L2C_rq_full 0

Core_0_L2C_wq_access 404590
Core_0_L2C_wq_forward 0
Core_0_L2C_wq_merged 0
Core_0_L2C_wq_to_cache 404590
Core_0_L2C_wq_full 0

Core_0_L2C_pq_access 1924738
Core_0_L2C_pq_forward 0
Core_0_L2C_pq_merged 5078
Core_0_L2C_pq_to_cache 1919660
Core_0_L2C_pq_full 0

Core_0_L2C_acc_epochs 56771
Core_0_L2C_acc_level_0 425
Core_0_L2C_acc_level_1 149
Core_0_L2C_acc_level_2 306
Core_0_L2C_acc_level_3 455
Core_0_L2C_acc_level_4 977
Core_0_L2C_acc_level_5 1420
Core_0_L2C_acc_level_6 2407
Core_0_L2C_acc_level_7 5009
Core_0_L2C_acc_level_8 9156
Core_0_L2C_acc_level_9 36467

Core_0_LLC_total_access 2270118
Core_0_LLC_total_hit 671673
Core_0_LLC_total_miss 1598445
Core_0_LLC_loads 50091
Core_0_LLC_load_hit 457
Core_0_LLC_load_miss 49634
Core_0_LLC_RFOs 268379
Core_0_LLC_RFO_hit 16
Core_0_LLC_RFO_miss 268363
Core_0_LLC_prefetches 1549968
Core_0_LLC_prefetch_hit 533093
Core_0_LLC_prefetch_miss 1016875
Core_0_LLC_writebacks 401680
Core_0_LLC_writeback_hit 138107
Core_0_LLC_writeback_miss 263573
Core_0_LLC_prefetch_requested 0
Core_0_LLC_prefetch_dropped 0
Core_0_LLC_prefetch_issued 0
Core_0_LLC_prefetch_filled 1131548
Core_0_LLC_prefetch_useful 426
Core_0_LLC_prefetch_useless 1102837
Core_0_LLC_prefetch_late 0
Core_0_LLC_average_miss_latency 360.26681

Core_0_LLC_rq_access 318471
Core_0_LLC_rq_forward 0
Core_0_LLC_rq_merged 0
Core_0_LLC_rq_to_cache 318471
Core_0_LLC_rq_full 0

Core_0_LLC_wq_access 401680
Core_0_LLC_wq_forward 0
Core_0_LLC_wq_merged 0
Core_0_LLC_wq_to_cache 401680
Core_0_LLC_wq_full 0

Core_0_LLC_pq_access 1914031
Core_0_LLC_pq_forward 0
Core_0_LLC_pq_merged 3549
Core_0_LLC_pq_to_cache 1910482
Core_0_LLC_pq_full 0

Core_0_LLC_acc_epochs 59480
Core_0_LLC_acc_level_0 59348
Core_0_LLC_acc_level_1 74
Core_0_LLC_acc_level_2 29
Core_0_LLC_acc_level_3 13
Core_0_LLC_acc_level_4 6
Core_0_LLC_acc_level_5 3
Core_0_LLC_acc_level_6 1
Core_0_LLC_acc_level_7 2
Core_0_LLC_acc_level_8 0
Core_0_LLC_acc_level_9 4

Core_0_major_page_fault 0
Core_0_minor_page_fault 19556

[MLOP] History of tracked zone:
IIIIIIIIIIIIIIIIIIIIIIIIIIIIIIIIIIIIIIIIIIIIIIIIIIIIIIIIIIIIIIII
IIIIIIIIIIIIIIIIIIIIIIIIIIIIIIIIIIIIIIIIIIIIIIIIIIA2222222244444
IIIIIIIIIIIIIIIIIIIIIIIIIIIIIIIIIIIIIIIIIIIIIIIIIIAA222222224444
IIIIIIIIIIIIIIIIIIIIIIIIIIIIIIIIIIIIIIIIIIIIIIIIIIAAA22222222444
IIIIIIIIIIIIIIIIIIIIIIIIIIIIIIIIIIIIIIIIIIIIIIIIIIAAAA2222222244
IIIIIIIIIIIIIIIIIIIIIIIIIIIIIIIIIIIIIIIIIIIIIIIIIIAAAAA222222224
IIIIIIIIIIIIIIIIIIIIIIIIIIIIIIIIIIIIIIIIIIIIIIIIIIAAAAAA22222222
IIIIIIIIIIIIIIIIIIIIIIIIIIIIIIIIIIIIIIIIIIIIIIIIIIAAAAAAA2222222
IIIIIIIIIIIIIIIIIIIIIIIIIIIIIIIIIIIIIIIIIIIIIIIIIIAAAAAAAA222222
IIIIIIIIIIIIIIIIIIIIIIIIIIIIIIIIIIIIIIIIIIIIIIIIIIAAAAAAAAA22222
IIIIIIIIIIIIIIIIIIIIIIIIIIIIIIIIIIIIIIIIIIIIIIIIIIAAAAAAAAAA2222
IIIIIIIIIIIIIIIIIIIIIIIIIIIIIIIIIIIIIIIIIIIIIIIIIIAAAAAAAAAAA222
IIIIIIIIIIIIIIIIIIIIIIIIIIIIIIIIIIIIIIIIIIIIIIIIIIAAAAAAAAAAAA22
IIIIIIIIIIIIIIIIIIIIIIIIIIIIIIIIIIIIIIIIIIIIIIIIIIAAAAAAAAAAAAA2
IIIIIIIIIIIIIIIIIIIIIIIIIIIIIIIIIIIIIIIIIIIIIIIIIIAAAAAAAAAAAAAA
IIIIIIIIIIIIIIIIIIIIIIIIIIIIIIIIIIIIIIIIIIIIIIIIIIIAAAAAAAAAAAAA
IIIIIIIIIIIIIIIIIIIIIIIIIIIIIIIIIIIIIIIIIIIIIIIIIIIIAAAAAAAAAAAA
IIIIIIIIIIIIIIIIIIIIIIIIIIIIIIIIIIIIIIIIIIIIIIIIIIIIAAAAAIAAAAAA
IIIIIIIIIIIIIIIIIIIIIIIIIIIIIIIIIIIIIIIIIIIIIIIIIIIIAAAAAIIAAAAA
IIIIIIIIIIIIIIIIIIIIIIIIIIIIIIIIIIIIIIIIIIIIIIIIIIIIAAAAAIIIAAAA
IIIIIIIIIIIIIIIIIIIIIIIIIIIIIIIIIIIIIIIIIIIIIIIIIIIIAAAAAIIIIAAA
IIIIIIIIIIIIIIIIIIIIIIIIIIIIIIIIIIIIIIIIIIIIIIIIIIIIAAAAAIIIIIAA
IIIIIIIIIIIIIIIIIIIIIIIIIIIIIIIIIIIIIIIIIIIIIIIIIIIIAAAAAIIIIIIA
IIIIIIIIIIIIIIIIIIIIIIIIIIIIIIIIIIIIIIIIIIIIIIIIIIIIAAAAAIIIIIII
IIIIIIIIIIIIIIIIIIIIIIIIIIIIIIIIIIIIIIIIIIIIIIIIIIA2222222222224
IIIIIIIIIIIIIIIIIIIIIIIIIIIIIIIIIIIIIIIIIIIIIIIIIIAA222222222222
IIIIIIIIIIIIIIIIIIIIIIIIIIIIIIIIIIIIIIIIIIIIIIIIIIAAA22222222222
IIIIIIIIIIIIIIIIIIIIIIIIIIIIIIIIIIIIIIIIIIIIIIIIIIAAAA2222222222
IIIIIIIIIIIIIIIIIIIIIIIIIIIIIIIIIIIIIIIIIIIIIIIIIIAAAAA222222222
IIIIIIIIIIIIIIIIIIIIIIIIIIIIIIIIIIIIIIIIIIIIIIIIIIAAAAAA22222222
IIIIIIIIIIIIIIIIIIIIIIIIIIIIIIIIIIIIIIIIIIIIIIIIIIAAAAAAA2222222
IIIIIIIIIIIIIIIIIIIIIIIIIIIIIIIIIIIIIIIIIIIIIIIIIIAAAAAAAA222222
IIIIIIIIIIIIIIIIIIIIIIIIIIIIIIIIIIIIIIIIIIIIIIIIIIAAAAAAAAA22222
IIIIIIIIIIIIIIIIIIIIIIIIIIIIIIIIIIIIIIIIIIIIIIIIIIAAAAAAAAAA2222
IIIIIIIIIIIIIIIIIIIIIIIIIIIIIIIIIIIIIIIIIIIIIIIIIIAAAAAAAAAAA222
IIIIIIIIIIIIIIIIIIIIIIIIIIIIIIIIIIIIIIIIIIIIIIIIIIAAAAAAAAAAAA22
IIIIIIIIIIIIIIIIIIIIIIIIIIIIIIIIIIIIIIIIIIIIIIIIIIAAAAAAAAAAAAA2
IIIIIIIIIIIIIIIIIIIIIIIIIIIIIIIIIIIIIIIIIIIIIIIIIIAAAAAAAAAAAAAA
IIIIIIIIIIIIIIIIIIIIIIIIIIIIIIIIIIIIIIIIIIIIIIIIIIIAAAAAAAAAAAAA
IIIIIIIIIIIIIIIIIIIIIIIIIIIIIIIIIIIIIIIIIIIIIIIIIIIIAAAAAAAAAAAA
IIIIIIIIIIIIIIIIIIIIIIIIIIIIIIIIIIIIIIIIIIIIIIIIIIIIIAAAAAAAAAAA
IIIIIIIIIIIIIIIIIIIIIIIIIIIIIIIIIIIIIIIIIIIIIIIIIIIIIIAAAAAAAAAA
IIIIIIIIIIIIIIIIIIIIIIIIIIIIIIIIIIIIIIIIIIIIIIIIIIIIIIIAAAAAAAAA
IIIIIIIIIIIIIIIIIIIIIIIIIIIIIIIIIIIIIIIIIIIIIIIIIIIIIIIIAAAAAAAA
IIIIIIIIIIIIIIIIIIIIIIIIIIIIIIIIIIIIIIIIIIIIIIIIIIIIIIIIIAAAAAAA
IIIIIIIIIIIIIIIIIIIIIIIIIIIIIIIIIIIIIIIIIIIIIIIIIIIIIIIIIAAAAAAI
[MLOP] Prefetch Degree Mean: 16.00000
[MLOP] Prefetch Degree SD: 0.00000
[MLOP] Max Score Left Mean (%): 64.68188
[MLOP] Max Score Left SD (%): 7.11013
[MLOP] Max Score Right Mean (%): 99.92192
[MLOP] Max Score Right SD (%): 0.20965

Channel_0_RQ_row_buffer_hit 557796
Channel_0_RQ_row_buffer_miss 777077
Channel_0_WQ_row_buffer_hit 60003
Channel_0_WQ_row_buffer_miss 340960
Channel_0_WQ_full 115
Channel_0_dbus_congested 1208617

avg_congested_cycle 11

DRAM_bw_pochs 237920
DRAM_bw_level_0 44289
DRAM_bw_level_1 70888
DRAM_bw_level_2 54749
DRAM_bw_level_3 67994
