*************************************************
   ChampSim Multicore Out-of-Order Simulator
   Last compiled: Apr  3 2025 20:54:34
*************************************************
parsing config file: /home/zir/Pythia/config/pythia.ini

trace_0 /home/zir/ChampSim/ML-DPC/ChampSimTraces/spec17/654.roms-s0.trace.xz
adding L2C_PREFETCHER: Scooby
Initialize SHIP state
warmup_instructions 10000000
simulation_instructions 50000000
champsim_seed 163
measure_ipc 0
measure_ipc_epoch 1000
measure_dram_bw 1
measure_dram_bw_epoch 256
measure_cache_acc 1
measure_cache_acc_epoch 1024
l1d_perfect 0
l2c_perfect 0
llc_perfect 0
l1d_semi_perfect 0
l2c_semi_perfect 0
llc_semi_perfect 0
semi_perfect_cache_page_buffer_size 64

num_cpus 1
cpu_freq 4000
dram_io_freq 2400
page_size 4096
block_size 64
max_read_per_cycle 8
max_fill_per_cycle 1
dram_channels 1
log2_dram_channels 0
dram_ranks 1
dram_banks 8
dram_rows 65536
dram_columns 128
dram_row_size 8
dram_size 4096
dram_pages 1048576

fetch_width 6
decode_width 6
exec_width 4
lq_width 2
sq_width 2
retire_width 4
scheduler_size 128
branch_mispredict_penalty 20
rob_size 256
lq_size 72
sq_size 56
num_instr_destinations_sparc 4
num_instr_destinations 2
num_instr_sources 4

itlb_set 16
itlb_way 8
itlb_rq_size 16
itlb_wq_size 16
itlb_pq_size 0
itlb_mshr_size 8
itlb_latency 1

dtlb_set 16
dtlb_way 4
dtlb_rq_size 16
dtlb_wq_size 16
dtlb_pq_size 0
dtlb_mshr_size 8
dtlb_latency 1

stlb_set 128
stlb_way 12
stlb_rq_size 32
stlb_wq_size 32
stlb_pq_size 0
stlb_mshr_size 16
stlb_latency 8

l1i_size 32
l1i_set 64
l1i_way 8
l1i_rq_size 64
l1i_wq_size 64
l1i_pq_size 8
l1i_mshr_size 8
l1i_latency 1

l1d_size 32
l1d_set 64
l1d_way 8
l1d_rq_size 64
l1d_wq_size 64
l1d_pq_size 8
l1d_mshr_size 16
l1d_latency 4

l2c_size 256
l2c_set 512
l2c_way 8
l2c_rq_size 32
l2c_wq_size 32
l2c_pq_size 32
l2c_mshr_size 32
l2c_latency 10

llc_size 2048
llc_set 2048
llc_way 16
llc_rq_size 32
llc_wq_size 32
llc_pq_size 32
llc_mshr_size 64
llc_latency 20

dram_channel_width 8
dram_wq_size 64
dram_rq_size 64
tRP 15
tRCD 15
tCAS 12.5
dram_dbus_turn_around_time 30
dram_write_high_wm 56
dram_write_low_wm 48
min_dram_writes_per_switch 16
dram_mtps 2400
dram_dbus_return_time 13

scooby_alpha 0.0065088
scooby_gamma 0.556301
scooby_epsilon 0.00182284
scooby_state_num_bits 10
scooby_max_states 1024
scooby_seed 200
scooby_policy EGreedy
scooby_learning_type SARSA
scooby_actions 1,3,4,5,10,11,12,22,23,30,32,-1,-3,-6,0,
scooby_max_actions 15
scooby_pt_size 256
scooby_st_size 64
scooby_max_pcs 5
scooby_max_offsets 5
scooby_max_deltas 5
scooby_reward_none -4
scooby_reward_incorrect -8
scooby_reward_correct_untimely 12
scooby_reward_correct_timely 20
scooby_brain_zero_init 0
scooby_enable_reward_all 0
scooby_enable_track_multiple 0
scooby_enable_reward_out_of_bounds 1
scooby_reward_out_of_bounds -12
scooby_state_type 1
scooby_state_hash_type 11
scooby_access_debug 0
scooby_print_access_debug 0
scooby_print_access_debug_pc deadbeef
scooby_print_access_debug_pc_count 0
scooby_print_trace 0
scooby_enable_state_action_stats 1
scooby_enable_reward_tracker_hit 0
scooby_reward_tracker_hit -2
scooby_enable_featurewise_engine 1
scooby_pref_degree 1
scooby_enable_dyn_degree 1
scooby_max_to_avg_q_thresholds 0.5,1,2,
scooby_dyn_degrees 1,2,4,4,
scooby_multi_deg_select_type 2
scooby_last_pref_offset_conf_thresholds 1,3,8,
scooby_dyn_degrees_type2 1,2,4,6,
scooby_action_tracker_size 2
scooby_high_bw_thresh 4
scooby_enable_hbw_reward 1
scooby_reward_hbw_correct_timely 20
scooby_reward_hbw_correct_untimely 12
scooby_reward_hbw_incorrect -14
scooby_reward_hbw_none -2
scooby_reward_hbw_out_of_bounds -12
scooby_reward_hbw_tracker_hit -2
scooby_last_pref_offset_conf_thresholds_hbw 1,3,8,
scooby_dyn_degrees_type2_hbw 1,2,4,6,

le_enable_trace 0
le_trace_interval 0
le_trace_file_name 
le_trace_state 0
le_enable_score_plot 0
le_plot_file_name 
le_plot_actions 
le_enable_action_trace 0
le_action_trace_interval 0
le_action_trace_name 
le_enable_action_plot 0

le_featurewise_active_features PC, PC_Delta
le_featurewise_num_tilings 3,3,
le_featurewise_num_tiles 128,128,
le_featurewise_hash_types 2,2,
le_featurewise_enable_tiling_offset 1,1,
le_featurewise_max_q_thresh 0.5
le_featurewise_enable_action_fallback 1
le_featurewise_feature_weights 1,1,
le_featurewise_enable_dynamic_weight 0
le_featurewise_weight_gradient 0.001
le_featurewise_disable_adjust_weight_all_features_align 1
le_featurewise_selective_update 0
le_featurewise_pooling_type 2
le_featurewise_enable_dyn_action_fallback 1
le_featurewise_bw_acc_check_level 1
le_featurewise_acc_thresh 2
le_featurewise_enable_trace 0
le_featurewise_trace_feature_type 0
le_featurewise_trace_feature 
le_featurewise_trace_interval 0
le_featurewise_trace_record_count 0
le_featurewise_trace_file_name 
le_featurewise_enable_score_plot 0
le_featurewise_plot_actions 
le_featurewise_plot_file_name 


Heartbeat CPU  0 instructions:    1000000 cycles:     465923 heartbeat IPC: 2.14628 cumulative IPC: 2.14628 (Simulation time: 0 hr 0 min 2 sec) 
Heartbeat CPU  0 instructions:    2000001 cycles:     931397 heartbeat IPC: 2.14835 cumulative IPC: 2.14731 (Simulation time: 0 hr 0 min 4 sec) 
Heartbeat CPU  0 instructions:    3000000 cycles:    1396833 heartbeat IPC: 2.14852 cumulative IPC: 2.14772 (Simulation time: 0 hr 0 min 5 sec) 
Heartbeat CPU  0 instructions:    4000000 cycles:    1862175 heartbeat IPC: 2.14896 cumulative IPC: 2.14803 (Simulation time: 0 hr 0 min 7 sec) 
Heartbeat CPU  0 instructions:    5000001 cycles:    2327523 heartbeat IPC: 2.14893 cumulative IPC: 2.14821 (Simulation time: 0 hr 0 min 9 sec) 
Heartbeat CPU  0 instructions:    6000000 cycles:    2793007 heartbeat IPC: 2.14830 cumulative IPC: 2.14822 (Simulation time: 0 hr 0 min 10 sec) 
Heartbeat CPU  0 instructions:    7000000 cycles:    3258400 heartbeat IPC: 2.14872 cumulative IPC: 2.14829 (Simulation time: 0 hr 0 min 12 sec) 
Heartbeat CPU  0 instructions:    8000000 cycles:    3723811 heartbeat IPC: 2.14864 cumulative IPC: 2.14834 (Simulation time: 0 hr 0 min 14 sec) 
Heartbeat CPU  0 instructions:    9000000 cycles:    4189222 heartbeat IPC: 2.14864 cumulative IPC: 2.14837 (Simulation time: 0 hr 0 min 15 sec) 
Heartbeat CPU  0 instructions:   10000002 cycles:    4654711 heartbeat IPC: 2.14828 cumulative IPC: 2.14836 (Simulation time: 0 hr 0 min 17 sec) 

Warmup complete CPU  0 instructions:   10000002 cycles:    4654711 (Simulation time: 0 hr 0 min 17 sec) 

Heartbeat CPU  0 instructions:   11000001 cycles:    6309137 heartbeat IPC: 0.60444 cumulative IPC: 0.60444 (Simulation time: 0 hr 0 min 19 sec) 
Heartbeat CPU  0 instructions:   12000000 cycles:    7956002 heartbeat IPC: 0.60721 cumulative IPC: 0.60582 (Simulation time: 0 hr 0 min 22 sec) 
Heartbeat CPU  0 instructions:   13000001 cycles:    9609028 heartbeat IPC: 0.60495 cumulative IPC: 0.60553 (Simulation time: 0 hr 0 min 24 sec) 
Heartbeat CPU  0 instructions:   14000001 cycles:   11261258 heartbeat IPC: 0.60524 cumulative IPC: 0.60546 (Simulation time: 0 hr 0 min 27 sec) 
Heartbeat CPU  0 instructions:   15000001 cycles:   12914500 heartbeat IPC: 0.60487 cumulative IPC: 0.60534 (Simulation time: 0 hr 0 min 29 sec) 
Heartbeat CPU  0 instructions:   16000000 cycles:   14567157 heartbeat IPC: 0.60509 cumulative IPC: 0.60530 (Simulation time: 0 hr 0 min 31 sec) 
Heartbeat CPU  0 instructions:   17000000 cycles:   16219883 heartbeat IPC: 0.60506 cumulative IPC: 0.60527 (Simulation time: 0 hr 0 min 34 sec) 
Heartbeat CPU  0 instructions:   18000000 cycles:   17872496 heartbeat IPC: 0.60510 cumulative IPC: 0.60524 (Simulation time: 0 hr 0 min 36 sec) 
Heartbeat CPU  0 instructions:   19000003 cycles:   19517451 heartbeat IPC: 0.60792 cumulative IPC: 0.60554 (Simulation time: 0 hr 0 min 38 sec) 
Heartbeat CPU  0 instructions:   20000000 cycles:   21170182 heartbeat IPC: 0.60506 cumulative IPC: 0.60549 (Simulation time: 0 hr 0 min 41 sec) 
Heartbeat CPU  0 instructions:   21000003 cycles:   22822858 heartbeat IPC: 0.60508 cumulative IPC: 0.60546 (Simulation time: 0 hr 0 min 43 sec) 
Heartbeat CPU  0 instructions:   22000001 cycles:   24476319 heartbeat IPC: 0.60479 cumulative IPC: 0.60540 (Simulation time: 0 hr 0 min 46 sec) 
Heartbeat CPU  0 instructions:   23000000 cycles:   26130206 heartbeat IPC: 0.60464 cumulative IPC: 0.60534 (Simulation time: 0 hr 0 min 48 sec) 
Heartbeat CPU  0 instructions:   24000000 cycles:   27784708 heartbeat IPC: 0.60441 cumulative IPC: 0.60527 (Simulation time: 0 hr 0 min 51 sec) 
Heartbeat CPU  0 instructions:   25000003 cycles:   29439322 heartbeat IPC: 0.60437 cumulative IPC: 0.60521 (Simulation time: 0 hr 0 min 53 sec) 
Heartbeat CPU  0 instructions:   26000003 cycles:   31091891 heartbeat IPC: 0.60512 cumulative IPC: 0.60521 (Simulation time: 0 hr 0 min 55 sec) 
Heartbeat CPU  0 instructions:   27000000 cycles:   32742040 heartbeat IPC: 0.60600 cumulative IPC: 0.60526 (Simulation time: 0 hr 0 min 58 sec) 
Heartbeat CPU  0 instructions:   28000000 cycles:   34396902 heartbeat IPC: 0.60428 cumulative IPC: 0.60520 (Simulation time: 0 hr 1 min 0 sec) 
Heartbeat CPU  0 instructions:   29000000 cycles:   36052301 heartbeat IPC: 0.60408 cumulative IPC: 0.60514 (Simulation time: 0 hr 1 min 2 sec) 
Heartbeat CPU  0 instructions:   30000000 cycles:   37707036 heartbeat IPC: 0.60433 cumulative IPC: 0.60510 (Simulation time: 0 hr 1 min 5 sec) 
Heartbeat CPU  0 instructions:   31000001 cycles:   39361745 heartbeat IPC: 0.60434 cumulative IPC: 0.60506 (Simulation time: 0 hr 1 min 7 sec) 
Heartbeat CPU  0 instructions:   32000000 cycles:   41017072 heartbeat IPC: 0.60411 cumulative IPC: 0.60502 (Simulation time: 0 hr 1 min 10 sec) 
Heartbeat CPU  0 instructions:   33000000 cycles:   42672583 heartbeat IPC: 0.60404 cumulative IPC: 0.60498 (Simulation time: 0 hr 1 min 12 sec) 
Heartbeat CPU  0 instructions:   34000000 cycles:   44318438 heartbeat IPC: 0.60759 cumulative IPC: 0.60509 (Simulation time: 0 hr 1 min 14 sec) 
Heartbeat CPU  0 instructions:   35000000 cycles:   45972046 heartbeat IPC: 0.60474 cumulative IPC: 0.60507 (Simulation time: 0 hr 1 min 17 sec) 
Heartbeat CPU  0 instructions:   36000000 cycles:   47625447 heartbeat IPC: 0.60481 cumulative IPC: 0.60506 (Simulation time: 0 hr 1 min 19 sec) 
Heartbeat CPU  0 instructions:   37000001 cycles:   49278136 heartbeat IPC: 0.60508 cumulative IPC: 0.60506 (Simulation time: 0 hr 1 min 22 sec) 
Heartbeat CPU  0 instructions:   38000002 cycles:   50931017 heartbeat IPC: 0.60500 cumulative IPC: 0.60506 (Simulation time: 0 hr 1 min 24 sec) 
Heartbeat CPU  0 instructions:   39000000 cycles:   52584501 heartbeat IPC: 0.60478 cumulative IPC: 0.60505 (Simulation time: 0 hr 1 min 26 sec) 
Heartbeat CPU  0 instructions:   40000000 cycles:   54237102 heartbeat IPC: 0.60511 cumulative IPC: 0.60505 (Simulation time: 0 hr 1 min 29 sec) 
Heartbeat CPU  0 instructions:   41000001 cycles:   55882825 heartbeat IPC: 0.60764 cumulative IPC: 0.60514 (Simulation time: 0 hr 1 min 31 sec) 
Heartbeat CPU  0 instructions:   42000003 cycles:   57535292 heartbeat IPC: 0.60516 cumulative IPC: 0.60514 (Simulation time: 0 hr 1 min 34 sec) 
Heartbeat CPU  0 instructions:   43000000 cycles:   59188504 heartbeat IPC: 0.60488 cumulative IPC: 0.60513 (Simulation time: 0 hr 1 min 36 sec) 
Heartbeat CPU  0 instructions:   44000000 cycles:   60731523 heartbeat IPC: 0.64808 cumulative IPC: 0.60631 (Simulation time: 0 hr 1 min 38 sec) 
Heartbeat CPU  0 instructions:   45000001 cycles:   62126453 heartbeat IPC: 0.71688 cumulative IPC: 0.60899 (Simulation time: 0 hr 1 min 41 sec) 
Heartbeat CPU  0 instructions:   46000000 cycles:   63107609 heartbeat IPC: 1.01920 cumulative IPC: 0.61588 (Simulation time: 0 hr 1 min 44 sec) 
Heartbeat CPU  0 instructions:   47000003 cycles:   64085990 heartbeat IPC: 1.02210 cumulative IPC: 0.62257 (Simulation time: 0 hr 1 min 46 sec) 
Heartbeat CPU  0 instructions:   48000000 cycles:   65201004 heartbeat IPC: 0.89685 cumulative IPC: 0.62762 (Simulation time: 0 hr 1 min 49 sec) 
Heartbeat CPU  0 instructions:   49000000 cycles:   66427984 heartbeat IPC: 0.81501 cumulative IPC: 0.63134 (Simulation time: 0 hr 1 min 52 sec) 
Heartbeat CPU  0 instructions:   50000003 cycles:   67660642 heartbeat IPC: 0.81126 cumulative IPC: 0.63486 (Simulation time: 0 hr 1 min 55 sec) 
Heartbeat CPU  0 instructions:   51000002 cycles:   68884754 heartbeat IPC: 0.81692 cumulative IPC: 0.63833 (Simulation time: 0 hr 1 min 57 sec) 
Heartbeat CPU  0 instructions:   52000000 cycles:   70125544 heartbeat IPC: 0.80594 cumulative IPC: 0.64151 (Simulation time: 0 hr 2 min 0 sec) 
Heartbeat CPU  0 instructions:   53000002 cycles:   72494140 heartbeat IPC: 0.42219 cumulative IPC: 0.63385 (Simulation time: 0 hr 2 min 3 sec) 
Heartbeat CPU  0 instructions:   54000002 cycles:   74195338 heartbeat IPC: 0.58782 cumulative IPC: 0.63272 (Simulation time: 0 hr 2 min 5 sec) 
Heartbeat CPU  0 instructions:   55000001 cycles:   75821967 heartbeat IPC: 0.61477 cumulative IPC: 0.63231 (Simulation time: 0 hr 2 min 8 sec) 
Heartbeat CPU  0 instructions:   56000000 cycles:   77479839 heartbeat IPC: 0.60318 cumulative IPC: 0.63165 (Simulation time: 0 hr 2 min 10 sec) 
Heartbeat CPU  0 instructions:   57000000 cycles:   79137828 heartbeat IPC: 0.60314 cumulative IPC: 0.63102 (Simulation time: 0 hr 2 min 12 sec) 
Heartbeat CPU  0 instructions:   58000003 cycles:   80796326 heartbeat IPC: 0.60296 cumulative IPC: 0.63040 (Simulation time: 0 hr 2 min 15 sec) 
Heartbeat CPU  0 instructions:   59000003 cycles:   82454950 heartbeat IPC: 0.60291 cumulative IPC: 0.62982 (Simulation time: 0 hr 2 min 17 sec) 
Heartbeat CPU  0 instructions:   60000000 cycles:   84112478 heartbeat IPC: 0.60331 cumulative IPC: 0.62927 (Simulation time: 0 hr 2 min 20 sec) 
Finished CPU 0 instructions: 50000000 cycles: 79457777 cumulative IPC: 0.62927 (Simulation time: 0 hr 2 min 20 sec) 

ChampSim completed all CPUs

[ROI Statistics]
Core_0_instructions 50000000
Core_0_cycles 79457777
Core_0_IPC 0.62927

Core_0_branch_prediction_accuracy 99.95464
Core_0_branch_MPKI 0.03442
Core_0_average_ROB_occupancy_at_mispredict 247.50901

Core_0_L1D_total_access 14496434
Core_0_L1D_total_hit 14042506
Core_0_L1D_total_miss 453928
Core_0_L1D_loads 9525050
Core_0_L1D_load_hit 9224854
Core_0_L1D_load_miss 300196
Core_0_L1D_RFOs 4971384
Core_0_L1D_RFO_hit 4817652
Core_0_L1D_RFO_miss 153732
Core_0_L1D_prefetches 0
Core_0_L1D_prefetch_hit 0
Core_0_L1D_prefetch_miss 0
Core_0_L1D_writebacks 0
Core_0_L1D_writeback_hit 0
Core_0_L1D_writeback_miss 0
Core_0_L1D_prefetch_requested 0
Core_0_L1D_prefetch_dropped 0
Core_0_L1D_prefetch_issued 0
Core_0_L1D_prefetch_filled 0
Core_0_L1D_prefetch_useful 0
Core_0_L1D_prefetch_useless 0
Core_0_L1D_prefetch_late 0
Core_0_L1D_average_miss_latency 178.48388

Core_0_L1D_rq_access 12350105
Core_0_L1D_rq_forward 0
Core_0_L1D_rq_merged 2693864
Core_0_L1D_rq_to_cache 9656241
Core_0_L1D_rq_full 0

Core_0_L1D_wq_access 6118340
Core_0_L1D_wq_forward 0
Core_0_L1D_wq_merged 320351
Core_0_L1D_wq_to_cache 5797989
Core_0_L1D_wq_full 0

Core_0_L1D_pq_access 0
Core_0_L1D_pq_forward 0
Core_0_L1D_pq_merged 0
Core_0_L1D_pq_to_cache 0
Core_0_L1D_pq_full 0

Core_0_L1D_acc_epochs 81087
Core_0_L1D_acc_level_0 81087
Core_0_L1D_acc_level_1 0
Core_0_L1D_acc_level_2 0
Core_0_L1D_acc_level_3 0
Core_0_L1D_acc_level_4 0
Core_0_L1D_acc_level_5 0
Core_0_L1D_acc_level_6 0
Core_0_L1D_acc_level_7 0
Core_0_L1D_acc_level_8 0
Core_0_L1D_acc_level_9 0

Core_0_L1I_total_access 18130438
Core_0_L1I_total_hit 18130375
Core_0_L1I_total_miss 63
Core_0_L1I_loads 18130438
Core_0_L1I_load_hit 18130375
Core_0_L1I_load_miss 63
Core_0_L1I_RFOs 0
Core_0_L1I_RFO_hit 0
Core_0_L1I_RFO_miss 0
Core_0_L1I_prefetches 0
Core_0_L1I_prefetch_hit 0
Core_0_L1I_prefetch_miss 0
Core_0_L1I_writebacks 0
Core_0_L1I_writeback_hit 0
Core_0_L1I_writeback_miss 0
Core_0_L1I_prefetch_requested 0
Core_0_L1I_prefetch_dropped 0
Core_0_L1I_prefetch_issued 0
Core_0_L1I_prefetch_filled 0
Core_0_L1I_prefetch_useful 0
Core_0_L1I_prefetch_useless 0
Core_0_L1I_prefetch_late 0
Core_0_L1I_average_miss_latency 154.50794

Core_0_L1I_rq_access 50000004
Core_0_L1I_rq_forward 0
Core_0_L1I_rq_merged 31869544
Core_0_L1I_rq_to_cache 18130460
Core_0_L1I_rq_full 0

Core_0_L1I_wq_access 0
Core_0_L1I_wq_forward 0
Core_0_L1I_wq_merged 0
Core_0_L1I_wq_to_cache 0
Core_0_L1I_wq_full 0

Core_0_L1I_pq_access 0
Core_0_L1I_pq_forward 0
Core_0_L1I_pq_merged 0
Core_0_L1I_pq_to_cache 0
Core_0_L1I_pq_full 0

Core_0_L1I_acc_epochs 81087
Core_0_L1I_acc_level_0 81087
Core_0_L1I_acc_level_1 0
Core_0_L1I_acc_level_2 0
Core_0_L1I_acc_level_3 0
Core_0_L1I_acc_level_4 0
Core_0_L1I_acc_level_5 0
Core_0_L1I_acc_level_6 0
Core_0_L1I_acc_level_7 0
Core_0_L1I_acc_level_8 0
Core_0_L1I_acc_level_9 0

Core_0_L2C_total_access 1620647
Core_0_L2C_total_hit 1154562
Core_0_L2C_total_miss 466085
Core_0_L2C_loads 300259
Core_0_L2C_load_hit 263100
Core_0_L2C_load_miss 37159
Core_0_L2C_RFOs 153732
Core_0_L2C_RFO_hit 2
Core_0_L2C_RFO_miss 153730
Core_0_L2C_prefetches 1011899
Core_0_L2C_prefetch_hit 736903
Core_0_L2C_prefetch_miss 274996
Core_0_L2C_writebacks 154757
Core_0_L2C_writeback_hit 154557
Core_0_L2C_writeback_miss 200
Core_0_L2C_prefetch_requested 1491562
Core_0_L2C_prefetch_dropped 682
Core_0_L2C_prefetch_issued 1490880
Core_0_L2C_prefetch_filled 283193
Core_0_L2C_prefetch_useful 267846
Core_0_L2C_prefetch_useless 15214
Core_0_L2C_prefetch_late 27685
Core_0_L2C_average_miss_latency 427.75352

Core_0_L2C_rq_access 453991
Core_0_L2C_rq_forward 0
Core_0_L2C_rq_merged 0
Core_0_L2C_rq_to_cache 453991
Core_0_L2C_rq_full 0

Core_0_L2C_wq_access 154757
Core_0_L2C_wq_forward 0
Core_0_L2C_wq_merged 0
Core_0_L2C_wq_to_cache 154757
Core_0_L2C_wq_full 0

Core_0_L2C_pq_access 1490880
Core_0_L2C_pq_forward 0
Core_0_L2C_pq_merged 11659
Core_0_L2C_pq_to_cache 1479221
Core_0_L2C_pq_full 0

Core_0_L2C_acc_epochs 81087
Core_0_L2C_acc_level_0 15678
Core_0_L2C_acc_level_1 15515
Core_0_L2C_acc_level_2 15188
Core_0_L2C_acc_level_3 659
Core_0_L2C_acc_level_4 445
Core_0_L2C_acc_level_5 15057
Core_0_L2C_acc_level_6 1053
Core_0_L2C_acc_level_7 1744
Core_0_L2C_acc_level_8 3291
Core_0_L2C_acc_level_9 12457

Core_0_LLC_total_access 619604
Core_0_LLC_total_hit 28980
Core_0_LLC_total_miss 590624
Core_0_LLC_loads 9476
Core_0_LLC_load_hit 8
Core_0_LLC_load_miss 9468
Core_0_LLC_RFOs 153730
Core_0_LLC_RFO_hit 0
Core_0_LLC_RFO_miss 153730
Core_0_LLC_prefetches 302679
Core_0_LLC_prefetch_hit 111
Core_0_LLC_prefetch_miss 302568
Core_0_LLC_writebacks 153719
Core_0_LLC_writeback_hit 28861
Core_0_LLC_writeback_miss 124858
Core_0_LLC_prefetch_requested 0
Core_0_LLC_prefetch_dropped 0
Core_0_LLC_prefetch_issued 0
Core_0_LLC_prefetch_filled 310767
Core_0_LLC_prefetch_useful 0
Core_0_LLC_prefetch_useless 305722
Core_0_LLC_prefetch_late 0
Core_0_LLC_average_miss_latency 329.25815

Core_0_LLC_rq_access 163206
Core_0_LLC_rq_forward 0
Core_0_LLC_rq_merged 0
Core_0_LLC_rq_to_cache 163206
Core_0_LLC_rq_full 0

Core_0_LLC_wq_access 153719
Core_0_LLC_wq_forward 0
Core_0_LLC_wq_merged 0
Core_0_LLC_wq_to_cache 153719
Core_0_LLC_wq_full 0

Core_0_LLC_pq_access 310879
Core_0_LLC_pq_forward 0
Core_0_LLC_pq_merged 0
Core_0_LLC_pq_to_cache 310879
Core_0_LLC_pq_full 0

Core_0_LLC_acc_epochs 82142
Core_0_LLC_acc_level_0 82142
Core_0_LLC_acc_level_1 0
Core_0_LLC_acc_level_2 0
Core_0_LLC_acc_level_3 0
Core_0_LLC_acc_level_4 0
Core_0_LLC_acc_level_5 0
Core_0_LLC_acc_level_6 0
Core_0_LLC_acc_level_7 0
Core_0_LLC_acc_level_8 0
Core_0_LLC_acc_level_9 0

Core_0_major_page_fault 0
Core_0_minor_page_fault 10418

scooby_st_lookup 308343
scooby_st_hit 300576
scooby_st_evict 7703
scooby_st_insert 7767
scooby_st_streaming 0

scooby_predict_called 308343
scooby_predict_out_of_bounds 4898
scooby_predict_action_1 302002
scooby_predict_issue_action_1 301718
scooby_predict_hit_action_1 284
scooby_predict_out_of_bounds_action_1 4779
scooby_predict_action_3 55
scooby_predict_issue_action_3 54
scooby_predict_hit_action_3 1
scooby_predict_out_of_bounds_action_3 1
scooby_predict_action_4 32
scooby_predict_issue_action_4 32
scooby_predict_hit_action_4 0
scooby_predict_out_of_bounds_action_4 2
scooby_predict_action_5 40
scooby_predict_issue_action_5 40
scooby_predict_hit_action_5 0
scooby_predict_out_of_bounds_action_5 5
scooby_predict_action_10 42
scooby_predict_issue_action_10 42
scooby_predict_hit_action_10 0
scooby_predict_out_of_bounds_action_10 13
scooby_predict_action_11 34
scooby_predict_issue_action_11 34
scooby_predict_hit_action_11 0
scooby_predict_out_of_bounds_action_11 7
scooby_predict_action_12 35
scooby_predict_issue_action_12 35
scooby_predict_hit_action_12 0
scooby_predict_out_of_bounds_action_12 12
scooby_predict_action_22 29
scooby_predict_issue_action_22 29
scooby_predict_hit_action_22 0
scooby_predict_out_of_bounds_action_22 19
scooby_predict_action_23 22
scooby_predict_issue_action_23 22
scooby_predict_hit_action_23 0
scooby_predict_out_of_bounds_action_23 17
scooby_predict_action_30 30
scooby_predict_issue_action_30 30
scooby_predict_hit_action_30 0
scooby_predict_out_of_bounds_action_30 19
scooby_predict_action_32 19
scooby_predict_issue_action_32 19
scooby_predict_hit_action_32 0
scooby_predict_out_of_bounds_action_32 20
scooby_predict_action_-1 493
scooby_predict_issue_action_-1 2
scooby_predict_hit_action_-1 491
scooby_predict_out_of_bounds_action_-1 2
scooby_predict_action_-3 538
scooby_predict_issue_action_-3 505
scooby_predict_hit_action_-3 33
scooby_predict_out_of_bounds_action_-3 0
scooby_predict_action_-6 31
scooby_predict_issue_action_-6 3
scooby_predict_hit_action_-6 28
scooby_predict_out_of_bounds_action_-6 2
scooby_predict_action_0 43
scooby_predict_issue_action_0 0
scooby_predict_hit_action_0 0
scooby_predict_out_of_bounds_action_0 0
scooby_predict_multi_deg_called 276842
scooby_predict_predicted 1491562
scooby_predict_multi_deg 1188997
scooby_predict_multi_deg_2 272203
scooby_predict_multi_deg_3 253054
scooby_predict_multi_deg_4 248490
scooby_predict_multi_deg_5 209787
scooby_predict_multi_deg_6 205463
scooby_predict_multi_deg_7 0
scooby_predict_multi_deg_8 0
scooby_predict_multi_deg_9 0
scooby_predict_multi_deg_10 0
scooby_predict_multi_deg_11 0
scooby_predict_multi_deg_12 0
scooby_predict_multi_deg_13 0
scooby_predict_multi_deg_14 0
scooby_predict_multi_deg_15 0
scooby_predict_multi_deg_16 0

scooby_selected_deg_1 25723
scooby_selected_deg_2 14687
scooby_selected_deg_3 0
scooby_selected_deg_4 35054
scooby_selected_deg_5 0
scooby_selected_deg_6 227101
scooby_selected_deg_7 0
scooby_selected_deg_8 0
scooby_selected_deg_9 0
scooby_selected_deg_10 0
scooby_selected_deg_11 0
scooby_selected_deg_12 0
scooby_selected_deg_13 0
scooby_selected_deg_14 0
scooby_selected_deg_15 0
scooby_selected_deg_16 0

scooby_state_43f52f|0|0 520,0,0,0,0,0,0,0,0,0,0,0,0,0,0,520,
scooby_state_43f2d0|0|0 519,0,0,0,0,0,0,0,0,0,0,0,0,1,0,520,
scooby_state_43f510|0|0 519,0,0,0,0,0,0,0,0,0,0,1,0,0,0,520,
scooby_state_43f509|0|0 518,0,0,0,0,0,0,1,0,0,0,0,0,1,0,520,
scooby_state_43f4d9|53|1 515,0,0,2,0,0,0,0,0,1,0,0,0,0,0,518,
scooby_state_43f4d4|30|1 517,0,0,0,0,0,0,0,0,0,0,0,0,0,1,518,
scooby_state_43f4d4|7|1 517,0,0,0,0,1,0,0,0,0,0,0,0,0,0,518,
scooby_state_43f4d9|1|1 517,0,0,0,1,0,0,0,0,0,0,0,0,0,0,518,
scooby_state_43f4d9|26|1 518,0,0,0,0,0,0,0,0,0,0,0,0,0,0,518,
scooby_state_43f4d4|5|1 517,0,0,0,1,0,0,0,0,0,0,0,0,0,0,518,
scooby_state_43f4d9|14|1 518,0,0,0,0,0,0,0,0,0,0,0,0,0,0,518,
scooby_state_43f4e2|12|1 518,0,0,0,0,0,0,0,0,0,0,0,0,0,0,518,
scooby_state_43f4d4|55|1 518,0,0,0,0,0,0,0,0,0,0,0,0,0,0,518,
scooby_state_43f4d9|60|1 517,1,0,0,0,0,0,0,0,0,0,0,0,0,0,518,
scooby_state_43f4d9|46|1 517,0,0,0,0,0,0,0,0,0,1,0,0,0,0,518,
scooby_state_43f4e2|46|1 517,0,0,0,0,0,0,1,0,0,0,0,0,0,0,518,
scooby_state_43f4d4|28|1 516,1,0,0,0,1,0,0,0,0,0,0,0,0,0,518,
scooby_state_43f4e2|13|1 517,0,0,0,0,0,1,0,0,0,0,0,0,0,0,518,
scooby_state_43f4d9|52|1 517,0,0,0,0,0,0,0,0,0,0,0,0,1,0,518,
scooby_state_43f4e2|53|1 516,2,0,0,0,0,0,0,0,0,0,0,0,0,0,518,
scooby_state_43f4d4|27|1 517,0,0,0,0,0,0,0,0,0,0,0,0,0,1,518,
scooby_state_43f4d4|54|1 517,0,0,0,0,0,1,0,0,0,0,0,0,0,0,518,
scooby_state_43f4e2|16|1 518,0,0,0,0,0,0,0,0,0,0,0,0,0,0,518,
scooby_state_43f4e2|52|1 518,0,0,0,0,0,0,0,0,0,0,0,0,0,0,518,
scooby_state_43f4d4|26|1 516,0,0,0,0,0,1,0,0,0,0,0,0,0,1,518,
scooby_state_43f4d9|15|1 518,0,0,0,0,0,0,0,0,0,0,0,0,0,0,518,
scooby_state_43f4d4|34|1 517,0,0,0,0,0,0,0,0,0,0,0,0,0,1,518,
scooby_state_43f4d4|38|1 518,0,0,0,0,0,0,0,0,0,0,0,0,0,0,518,
scooby_state_43f4d4|17|1 518,0,0,0,0,0,0,0,0,0,0,0,0,0,0,518,
scooby_state_43f4d9|62|1 517,0,0,0,0,0,0,0,0,0,0,0,1,0,0,518,
scooby_state_43f4d4|53|1 516,0,0,0,1,0,0,0,0,0,0,0,0,0,1,518,
scooby_state_43f4e2|63|1 517,0,0,0,1,0,0,0,0,0,0,0,0,0,0,518,
scooby_state_43f4e2|0|0 518,0,0,0,0,0,0,0,0,0,0,0,0,0,0,518,
scooby_state_43f4d4|0|0 515,1,0,0,1,0,0,1,0,0,0,0,0,0,0,518,
scooby_state_43f4e2|62|1 517,0,0,0,0,0,0,0,0,0,0,1,0,0,0,518,
scooby_state_43f4d4|43|1 518,0,0,0,0,0,0,0,0,0,0,0,0,0,0,518,
scooby_state_43f4d4|35|1 518,0,0,0,0,0,0,0,0,0,0,0,0,0,0,518,
scooby_state_43f4d9|59|1 517,0,0,0,0,0,0,0,0,0,0,1,0,0,0,518,
scooby_state_43f4e2|60|1 518,0,0,0,0,0,0,0,0,0,0,0,0,0,0,518,
scooby_state_43f4d9|55|1 518,0,0,0,0,0,0,0,0,0,0,0,0,0,0,518,
scooby_state_43f4d4|8|1 517,0,0,0,0,0,0,1,0,0,0,0,0,0,0,518,
scooby_state_43f4d9|27|1 517,0,0,0,0,0,1,0,0,0,0,0,0,0,0,518,
scooby_state_43f4d9|33|1 517,0,0,0,0,0,0,0,1,0,0,0,0,0,0,518,
scooby_state_43f4d4|63|1 516,0,0,0,0,0,0,0,1,0,0,0,0,1,0,518,
scooby_state_43f4d9|56|1 518,0,0,0,0,0,0,0,0,0,0,0,0,0,0,518,
scooby_state_43f4d4|31|1 516,0,0,0,0,0,0,1,0,0,1,0,0,0,0,518,
scooby_state_43f4d4|20|1 516,0,0,0,0,0,0,0,0,1,0,1,0,0,0,518,
scooby_state_43f4d4|46|1 518,0,0,0,0,0,0,0,0,0,0,0,0,0,0,518,
scooby_state_43f4d4|33|1 516,0,0,0,0,0,0,0,0,0,0,0,0,0,2,518,
scooby_state_43f4d9|11|1 518,0,0,0,0,0,0,0,0,0,0,0,0,0,0,518,
scooby_state_43f4d4|52|1 516,0,0,0,0,0,0,0,0,0,1,1,0,0,0,518,
scooby_state_43f4e2|8|1 516,0,1,0,0,0,0,0,1,0,0,0,0,0,0,518,
scooby_state_43f4d4|57|1 518,0,0,0,0,0,0,0,0,0,0,0,0,0,0,518,
scooby_state_43f4d4|58|1 516,1,0,1,0,0,0,0,0,0,0,0,0,0,0,518,
scooby_state_43f4d4|18|1 517,0,0,0,0,0,0,0,0,1,0,0,0,0,0,518,
scooby_state_43f4d9|42|1 518,0,0,0,0,0,0,0,0,0,0,0,0,0,0,518,
scooby_state_43f4e2|43|1 518,0,0,0,0,0,0,0,0,0,0,0,0,0,0,518,
scooby_state_43f4d9|41|1 517,0,0,0,0,0,0,0,0,0,0,0,0,0,1,518,
scooby_state_43f4d9|54|1 516,0,0,0,0,0,1,1,0,0,0,0,0,0,0,518,
scooby_state_43f4e2|42|1 518,0,0,0,0,0,0,0,0,0,0,0,0,0,0,518,
scooby_state_43f4e2|30|1 517,0,0,0,0,1,0,0,0,0,0,0,0,0,0,518,
scooby_state_43f4e2|48|1 517,0,0,0,0,0,0,0,0,0,0,1,0,0,0,518,
scooby_state_43f4d4|16|1 518,0,0,0,0,0,0,0,0,0,0,0,0,0,0,518,
scooby_state_43f4e2|41|1 518,0,0,0,0,0,0,0,0,0,0,0,0,0,0,518,
scooby_state_43f4e2|37|1 518,0,0,0,0,0,0,0,0,0,0,0,0,0,0,518,
scooby_state_43f4d9|17|1 516,0,0,1,1,0,0,0,0,0,0,0,0,0,0,518,
scooby_state_43f4d4|12|1 517,0,0,1,0,0,0,0,0,0,0,0,0,0,0,518,
scooby_state_43f4e2|19|1 517,0,0,1,0,0,0,0,0,0,0,0,0,0,0,518,
scooby_state_43f4d4|37|1 518,0,0,0,0,0,0,0,0,0,0,0,0,0,0,518,
scooby_state_43f4d4|14|1 516,0,0,0,0,0,0,0,0,0,0,1,0,0,1,518,
scooby_state_43f4d9|37|1 517,0,1,0,0,0,0,0,0,0,0,0,0,0,0,518,
scooby_state_43f4d9|38|1 518,0,0,0,0,0,0,0,0,0,0,0,0,0,0,518,
scooby_state_43f4d4|13|1 515,0,0,1,0,0,0,0,0,0,1,0,0,1,0,518,
scooby_state_43f4d9|24|1 516,0,0,0,1,0,1,0,0,0,0,0,0,0,0,518,
scooby_state_43f4d9|4|1 517,0,0,0,0,0,0,0,0,0,0,1,0,0,0,518,
scooby_state_43f4d9|19|1 517,1,0,0,0,0,0,0,0,0,0,0,0,0,0,518,
scooby_state_43f4d9|40|1 518,0,0,0,0,0,0,0,0,0,0,0,0,0,0,518,
scooby_state_43f4e2|35|1 516,0,0,0,0,0,0,0,0,1,0,1,0,0,0,518,
scooby_state_43f4d9|31|1 518,0,0,0,0,0,0,0,0,0,0,0,0,0,0,518,
scooby_state_43f4d9|50|1 518,0,0,0,0,0,0,0,0,0,0,0,0,0,0,518,
scooby_state_43f4d9|51|1 517,0,0,0,0,0,0,0,1,0,0,0,0,0,0,518,
scooby_state_43f4d4|25|1 517,0,0,0,0,0,0,0,0,1,0,0,0,0,0,518,
scooby_state_43f4d4|24|1 518,0,0,0,0,0,0,0,0,0,0,0,0,0,0,518,
scooby_state_43f4d9|21|1 515,0,0,0,0,1,0,1,0,0,0,1,0,0,0,518,
scooby_state_43f4e2|18|1 517,0,0,0,0,0,0,0,0,1,0,0,0,0,0,518,
scooby_state_43f4e2|49|1 517,0,0,0,0,0,0,0,0,0,0,1,0,0,0,518,
scooby_state_43f4d4|23|1 518,0,0,0,0,0,0,0,0,0,0,0,0,0,0,518,
scooby_state_43f4d9|47|1 516,0,0,0,0,0,0,1,0,0,1,0,0,0,0,518,
scooby_state_43f4e2|21|1 518,0,0,0,0,0,0,0,0,0,0,0,0,0,0,518,
scooby_state_43f4d9|61|1 516,0,0,0,0,0,0,1,1,0,0,0,0,0,0,518,
scooby_state_43f4e2|51|1 516,0,0,0,0,0,1,0,0,1,0,0,0,0,0,518,
scooby_state_43f4d4|51|1 517,0,1,0,0,0,0,0,0,0,0,0,0,0,0,518,
scooby_state_43f4d9|48|1 518,0,0,0,0,0,0,0,0,0,0,0,0,0,0,518,
scooby_state_43f4d4|21|1 518,0,0,0,0,0,0,0,0,0,0,0,0,0,0,518,
scooby_state_43f4d9|45|1 517,0,0,0,0,0,0,1,0,0,0,0,0,0,0,518,
scooby_state_43f4e2|56|1 518,0,0,0,0,0,0,0,0,0,0,0,0,0,0,518,
scooby_state_43f4d4|59|1 517,0,0,1,0,0,0,0,0,0,0,0,0,0,0,518,
scooby_state_43f4d9|44|1 514,0,1,0,0,0,0,1,0,0,1,0,0,0,1,518,
scooby_state_43f4e2|45|1 517,0,0,0,0,0,1,0,0,0,0,0,0,0,0,518,
scooby_state_43f4d4|19|1 516,0,0,1,0,0,0,0,0,0,0,0,0,0,1,518,
scooby_state_43f4e2|44|1 515,0,0,0,0,1,1,1,0,0,0,0,0,0,0,518,
scooby_state_43f4d4|62|1 517,0,0,0,0,0,0,0,0,1,0,0,0,0,0,518,
scooby_state_43f4e2|2|1 515,0,0,0,0,0,0,2,0,0,0,0,0,0,1,518,
scooby_state_43f4d9|36|1 518,0,0,0,0,0,0,0,0,0,0,0,0,0,0,518,
scooby_state_43f4e2|22|1 516,0,0,0,0,0,1,0,1,0,0,0,0,0,0,518,
scooby_state_43f4e2|24|1 516,0,1,0,0,0,0,0,0,0,0,1,0,0,0,518,
scooby_state_43f4d9|29|1 516,0,0,1,0,0,0,0,0,0,0,0,0,0,1,518,
scooby_state_43f4d4|9|1 518,0,0,0,0,0,0,0,0,0,0,0,0,0,0,518,
scooby_state_43f4d9|18|1 517,0,0,0,0,0,0,1,0,0,0,0,0,0,0,518,
scooby_state_43f4d4|10|1 518,0,0,0,0,0,0,0,0,0,0,0,0,0,0,518,
scooby_state_43f4e2|50|1 517,1,0,0,0,0,0,0,0,0,0,0,0,0,0,518,
scooby_state_43f4d9|10|1 517,0,0,0,1,0,0,0,0,0,0,0,0,0,0,518,
scooby_state_43f4e2|20|1 518,0,0,0,0,0,0,0,0,0,0,0,0,0,0,518,
scooby_state_43f4d9|8|1 517,0,0,0,1,0,0,0,0,0,0,0,0,0,0,518,
scooby_state_43f4e2|31|1 518,0,0,0,0,0,0,0,0,0,0,0,0,0,0,518,
scooby_state_43f4d4|4|1 518,0,0,0,0,0,0,0,0,0,0,0,0,0,0,518,
scooby_state_43f4e2|55|1 516,1,0,1,0,0,0,0,0,0,0,0,0,0,0,518,
scooby_state_43f4e2|1|1 517,0,0,0,1,0,0,0,0,0,0,0,0,0,0,518,
scooby_state_43f4e2|23|1 517,0,0,1,0,0,0,0,0,0,0,0,0,0,0,518,
scooby_state_43f4d4|39|1 517,0,0,0,0,0,0,0,0,0,1,0,0,0,0,518,
scooby_state_43f4d4|36|1 517,1,0,0,0,0,0,0,0,0,0,0,0,0,0,518,
scooby_state_43f4d9|20|1 518,0,0,0,0,0,0,0,0,0,0,0,0,0,0,518,
scooby_state_43f4e2|5|1 515,0,0,0,0,0,0,1,1,0,1,0,0,0,0,518,
scooby_state_43f4d4|6|1 517,0,0,0,0,0,0,0,1,0,0,0,0,0,0,518,
scooby_state_43f4e2|14|1 517,0,0,0,0,0,0,0,0,0,0,0,1,0,0,518,
scooby_state_43f4d9|23|1 517,0,0,0,0,0,0,0,0,0,0,0,0,0,1,518,
scooby_state_43f4d9|25|1 518,0,0,0,0,0,0,0,0,0,0,0,0,0,0,518,
scooby_state_43f4d4|1|1 516,0,0,0,0,0,0,0,1,1,0,0,0,0,0,518,
scooby_state_43f4e2|25|1 517,0,0,0,0,0,0,0,0,1,0,0,0,0,0,518,
scooby_state_43f4e2|36|1 518,0,0,0,0,0,0,0,0,0,0,0,0,0,0,518,
scooby_state_43f4d4|22|1 516,0,0,1,0,0,0,0,0,0,1,0,0,0,0,518,
scooby_state_43f4d4|50|1 517,0,1,0,0,0,0,0,0,0,0,0,0,0,0,518,
scooby_state_43f4e2|15|1 515,1,0,0,0,0,1,0,1,0,0,0,0,0,0,518,
scooby_state_43f4e2|34|1 516,0,0,0,0,0,0,0,0,0,1,0,0,1,0,518,
scooby_state_43f4d4|15|1 518,0,0,0,0,0,0,0,0,0,0,0,0,0,0,518,
scooby_state_43f4e2|29|1 517,0,0,0,0,0,0,0,0,0,0,0,0,1,0,518,
scooby_state_43f4d4|2|1 517,0,0,0,0,0,0,0,0,0,0,1,0,0,0,518,
scooby_state_43f4d9|30|1 517,0,0,0,0,0,0,0,0,0,0,0,1,0,0,518,
scooby_state_43f4d4|3|1 516,0,0,0,0,1,0,0,0,0,0,0,0,0,1,518,
scooby_state_43f4d9|6|1 518,0,0,0,0,0,0,0,0,0,0,0,0,0,0,518,
scooby_state_43f4d9|39|1 516,0,0,0,1,0,0,0,0,1,0,0,0,0,0,518,
scooby_state_43f4d9|12|1 518,0,0,0,0,0,0,0,0,0,0,0,0,0,0,518,
scooby_state_43f4e2|10|1 516,0,0,0,0,0,0,1,0,0,0,0,1,0,0,518,
scooby_state_43f4d9|32|1 517,0,0,0,0,0,0,0,1,0,0,0,0,0,0,518,
scooby_state_43f4d9|34|1 517,0,1,0,0,0,0,0,0,0,0,0,0,0,0,518,
scooby_state_43f4d9|57|1 516,0,0,0,0,0,1,0,0,0,0,0,0,0,1,518,
scooby_state_43f4d9|22|1 518,0,0,0,0,0,0,0,0,0,0,0,0,0,0,518,
scooby_state_43f4d9|13|1 518,0,0,0,0,0,0,0,0,0,0,0,0,0,0,518,
scooby_state_43f4d4|11|1 517,0,0,0,0,1,0,0,0,0,0,0,0,0,0,518,
scooby_state_43f4e2|4|1 517,0,0,0,0,0,0,1,0,0,0,0,0,0,0,518,
scooby_state_43f4d4|45|1 518,0,0,0,0,0,0,0,0,0,0,0,0,0,0,518,
scooby_state_43f4d9|58|1 517,0,0,0,1,0,0,0,0,0,0,0,0,0,0,518,
scooby_state_43f4d9|5|1 517,0,0,0,0,0,0,0,0,0,1,0,0,0,0,518,
scooby_state_43f4e2|6|1 516,0,0,0,0,1,0,0,0,0,0,0,0,1,0,518,
scooby_state_43f4d4|44|1 518,0,0,0,0,0,0,0,0,0,0,0,0,0,0,518,
scooby_state_43f4e2|32|1 515,0,0,0,0,1,0,0,0,0,0,0,0,2,0,518,
scooby_state_43f4d9|7|1 518,0,0,0,0,0,0,0,0,0,0,0,0,0,0,518,
scooby_state_43f4d9|16|1 516,0,0,0,0,0,0,0,0,1,0,0,0,1,0,518,
scooby_state_43f4d9|43|1 517,0,0,0,0,0,0,0,0,0,0,0,1,0,0,518,
scooby_state_43f4d9|49|1 515,0,0,0,0,0,0,0,2,0,0,0,0,1,0,518,
scooby_state_43f4d9|3|1 517,0,0,0,0,0,0,1,0,0,0,0,0,0,0,518,
scooby_state_43f4d9|28|1 516,0,0,0,0,0,0,0,0,1,0,0,1,0,0,518,
scooby_state_43f4d4|42|1 517,0,0,0,0,0,0,0,0,0,0,0,1,0,0,518,
scooby_state_43f4d9|2|1 517,0,0,0,1,0,0,0,0,0,0,0,0,0,0,518,
scooby_state_43f4d4|47|1 516,0,0,0,1,0,0,0,1,0,0,0,0,0,0,518,
scooby_state_43f4e2|3|1 518,0,0,0,0,0,0,0,0,0,0,0,0,0,0,518,
scooby_state_43f4d4|61|1 517,0,0,0,0,0,0,0,0,0,1,0,0,0,0,518,
scooby_state_43f4d4|41|1 517,1,0,0,0,0,0,0,0,0,0,0,0,0,0,518,
scooby_state_43f4d9|35|1 518,0,0,0,0,0,0,0,0,0,0,0,0,0,0,518,
scooby_state_43f4e2|17|1 518,0,0,0,0,0,0,0,0,0,0,0,0,0,0,518,
scooby_state_43f4d4|40|1 517,0,0,1,0,0,0,0,0,0,0,0,0,0,0,518,
scooby_state_43f4d4|60|1 517,0,0,0,0,0,1,0,0,0,0,0,0,0,0,518,
scooby_state_43f4d9|63|1 516,0,0,0,0,0,1,0,0,0,0,0,0,1,0,518,
scooby_state_43f4e2|47|1 518,0,0,0,0,0,0,0,0,0,0,0,0,0,0,518,
scooby_state_43f4e2|33|1 518,0,0,0,0,0,0,0,0,0,0,0,0,0,0,518,
scooby_state_43f4e2|7|1 516,0,0,0,0,0,0,1,0,0,0,0,0,0,1,518,
scooby_state_43f4d4|56|1 518,0,0,0,0,0,0,0,0,0,0,0,0,0,0,518,
scooby_state_43f4e2|54|1 516,2,0,0,0,0,0,0,0,0,0,0,0,0,0,518,
scooby_state_43f4e2|61|1 517,0,0,1,0,0,0,0,0,0,0,0,0,0,0,518,
scooby_state_43f4d4|48|1 518,0,0,0,0,0,0,0,0,0,0,0,0,0,0,518,
scooby_state_43f4e2|9|1 516,0,0,0,1,0,0,0,0,0,0,1,0,0,0,518,
scooby_state_43f4d4|32|1 518,0,0,0,0,0,0,0,0,0,0,0,0,0,0,518,
scooby_state_43f4d9|0|0 518,0,0,0,0,0,0,0,0,0,0,0,0,0,0,518,
scooby_state_43f4d4|29|1 517,1,0,0,0,0,0,0,0,0,0,0,0,0,0,518,
scooby_state_43f4e2|28|1 514,0,0,0,0,1,1,1,0,0,0,0,0,0,0,517,
scooby_state_43f4e2|38|1 517,0,0,0,0,0,0,0,0,0,0,0,0,0,0,517,
scooby_state_43f4e2|57|1 514,0,0,0,0,0,0,0,0,1,1,1,0,0,0,517,
scooby_state_43f4d4|49|1 516,0,0,0,0,0,1,0,0,0,0,0,0,0,0,517,
scooby_state_43f4d9|9|1 517,0,0,0,0,0,0,0,0,0,0,0,0,0,0,517,
scooby_state_43f4e2|27|1 516,0,0,0,0,0,0,0,0,0,0,0,1,0,0,517,
scooby_state_43f4e2|40|1 516,0,0,0,0,0,0,0,0,0,0,0,0,1,0,517,
scooby_state_43f4e2|39|1 516,0,0,0,0,0,0,0,0,0,0,0,0,1,0,517,
scooby_state_43f4e2|58|1 517,0,0,0,0,0,0,0,0,0,0,0,0,0,0,517,
scooby_state_43f4e2|26|1 516,0,0,0,0,0,1,0,0,0,0,0,0,0,0,517,
scooby_state_43f4e2|11|1 516,0,0,0,0,0,0,0,0,0,0,1,0,0,0,517,
scooby_state_43f4e2|59|1 516,0,0,0,0,0,0,0,0,0,0,0,0,0,1,517,
scooby_state_43f2d0|11|1 512,0,0,0,0,0,0,0,0,0,0,0,0,0,0,512,
scooby_state_43f52f|57|1 512,0,0,0,0,0,0,0,0,0,0,0,0,0,0,512,
scooby_state_43f510|10|1 512,0,0,0,0,0,0,0,0,0,0,0,0,0,0,512,
scooby_state_43f52f|23|1 511,0,1,0,0,0,0,0,0,0,0,0,0,0,0,512,
scooby_state_43f52f|43|1 511,0,0,0,1,0,0,0,0,0,0,0,0,0,0,512,
scooby_state_43f509|16|1 511,0,0,0,0,0,0,0,0,0,0,1,0,0,0,512,
scooby_state_43f509|29|1 510,0,0,0,0,0,0,0,1,0,0,1,0,0,0,512,
scooby_state_43f52f|52|1 511,1,0,0,0,0,0,0,0,0,0,0,0,0,0,512,
scooby_state_43f510|7|1 510,0,0,0,0,0,1,0,0,0,0,0,0,0,1,512,
scooby_state_43f2d0|21|1 512,0,0,0,0,0,0,0,0,0,0,0,0,0,0,512,
scooby_state_43f2d0|27|1 512,0,0,0,0,0,0,0,0,0,0,0,0,0,0,512,
scooby_state_43f510|4|1 509,0,1,0,0,0,0,0,1,1,0,0,0,0,0,512,
scooby_state_43f510|20|1 510,0,0,0,1,0,0,0,0,0,0,0,1,0,0,512,
scooby_state_43f510|39|1 510,0,0,0,0,0,0,0,0,1,0,0,1,0,0,512,
scooby_state_43f2d0|50|1 512,0,0,0,0,0,0,0,0,0,0,0,0,0,0,512,
scooby_state_43f510|52|1 512,0,0,0,0,0,0,0,0,0,0,0,0,0,0,512,
scooby_state_43f509|56|1 512,0,0,0,0,0,0,0,0,0,0,0,0,0,0,512,
scooby_state_43f2d0|26|1 512,0,0,0,0,0,0,0,0,0,0,0,0,0,0,512,
scooby_state_43f2d0|51|1 510,0,0,0,1,0,0,0,0,0,0,1,0,0,0,512,
scooby_state_43f52f|39|1 511,0,0,0,1,0,0,0,0,0,0,0,0,0,0,512,
scooby_state_43f2d0|34|1 512,0,0,0,0,0,0,0,0,0,0,0,0,0,0,512,
scooby_state_43f52f|63|1 511,0,0,0,0,0,0,0,0,0,0,0,0,0,1,512,
scooby_state_43f510|57|1 512,0,0,0,0,0,0,0,0,0,0,0,0,0,0,512,
scooby_state_43f510|16|1 512,0,0,0,0,0,0,0,0,0,0,0,0,0,0,512,
scooby_state_43f509|1|1 512,0,0,0,0,0,0,0,0,0,0,0,0,0,0,512,
scooby_state_43f510|15|1 511,0,0,0,0,0,0,0,0,0,0,0,0,1,0,512,
scooby_state_43f510|2|1 512,0,0,0,0,0,0,0,0,0,0,0,0,0,0,512,
scooby_state_43f510|22|1 509,0,0,0,0,0,1,0,2,0,0,0,0,0,0,512,
scooby_state_43f510|17|1 510,0,0,0,0,1,1,0,0,0,0,0,0,0,0,512,
scooby_state_43f509|5|1 512,0,0,0,0,0,0,0,0,0,0,0,0,0,0,512,
scooby_state_43f510|1|1 511,0,0,0,1,0,0,0,0,0,0,0,0,0,0,512,
scooby_state_43f510|14|1 510,0,1,0,0,0,0,0,0,0,0,0,0,1,0,512,
scooby_state_43f52f|2|1 511,0,0,0,0,1,0,0,0,0,0,0,0,0,0,512,
scooby_state_43f509|58|1 511,0,0,0,0,0,0,0,0,1,0,0,0,0,0,512,
scooby_state_43f52f|42|1 511,0,0,0,0,0,0,0,0,0,0,1,0,0,0,512,
scooby_state_43f510|24|1 512,0,0,0,0,0,0,0,0,0,0,0,0,0,0,512,
scooby_state_43f2d0|18|1 511,0,0,0,0,0,0,0,0,0,0,0,0,1,0,512,
scooby_state_43f52f|25|1 510,1,0,0,0,0,0,0,0,0,0,1,0,0,0,512,
scooby_state_43f2d0|59|1 511,0,0,1,0,0,0,0,0,0,0,0,0,0,0,512,
scooby_state_43f2d0|12|1 512,0,0,0,0,0,0,0,0,0,0,0,0,0,0,512,
scooby_state_43f52f|36|1 512,0,0,0,0,0,0,0,0,0,0,0,0,0,0,512,
scooby_state_43f510|37|1 512,0,0,0,0,0,0,0,0,0,0,0,0,0,0,512,
scooby_state_43f52f|19|1 512,0,0,0,0,0,0,0,0,0,0,0,0,0,0,512,
scooby_state_43f509|9|1 512,0,0,0,0,0,0,0,0,0,0,0,0,0,0,512,
scooby_state_43f509|23|1 510,0,0,0,0,0,0,1,0,0,0,0,0,0,1,512,
scooby_state_43f509|35|1 512,0,0,0,0,0,0,0,0,0,0,0,0,0,0,512,
scooby_state_43f509|14|1 511,0,0,0,0,0,1,0,0,0,0,0,0,0,0,512,
scooby_state_43f52f|8|1 512,0,0,0,0,0,0,0,0,0,0,0,0,0,0,512,
scooby_state_43f509|4|1 510,1,0,0,0,0,0,0,0,0,0,1,0,0,0,512,
scooby_state_43f509|50|1 511,0,0,0,0,0,0,0,0,0,0,1,0,0,0,512,
scooby_state_43f510|41|1 511,0,0,0,0,0,0,0,0,0,0,0,1,0,0,512,
scooby_state_43f52f|1|1 512,0,0,0,0,0,0,0,0,0,0,0,0,0,0,512,
scooby_state_43f509|13|1 511,0,1,0,0,0,0,0,0,0,0,0,0,0,0,512,
scooby_state_43f509|48|1 511,0,0,0,0,1,0,0,0,0,0,0,0,0,0,512,
scooby_state_43f52f|20|1 510,1,1,0,0,0,0,0,0,0,0,0,0,0,0,512,
scooby_state_43f510|34|1 511,0,0,0,1,0,0,0,0,0,0,0,0,0,0,512,
scooby_state_43f510|30|1 510,0,1,0,0,0,0,0,0,1,0,0,0,0,0,512,
scooby_state_43f510|56|1 512,0,0,0,0,0,0,0,0,0,0,0,0,0,0,512,
scooby_state_43f509|55|1 511,0,0,0,0,0,0,0,0,0,0,0,0,0,1,512,
scooby_state_43f509|31|1 510,0,1,0,0,0,0,0,0,0,1,0,0,0,0,512,
scooby_state_43f52f|46|1 511,0,0,0,0,0,1,0,0,0,0,0,0,0,0,512,
scooby_state_43f52f|32|1 511,0,0,0,0,0,0,1,0,0,0,0,0,0,0,512,
scooby_state_43f52f|45|1 510,1,0,0,0,0,0,0,1,0,0,0,0,0,0,512,
scooby_state_43f52f|34|1 512,0,0,0,0,0,0,0,0,0,0,0,0,0,0,512,
scooby_state_43f510|3|1 510,0,0,0,0,0,1,0,0,0,0,0,0,0,1,512,
scooby_state_43f509|39|1 511,0,0,0,0,0,0,0,0,0,0,0,0,1,0,512,
scooby_state_43f509|6|1 511,0,0,0,0,0,0,0,0,1,0,0,0,0,0,512,
scooby_state_43f52f|28|1 512,0,0,0,0,0,0,0,0,0,0,0,0,0,0,512,
scooby_state_43f2d0|40|1 511,0,0,0,1,0,0,0,0,0,0,0,0,0,0,512,
scooby_state_43f2d0|2|1 510,0,0,0,0,0,0,0,0,1,0,1,0,0,0,512,
scooby_state_43f509|8|1 512,0,0,0,0,0,0,0,0,0,0,0,0,0,0,512,
scooby_state_43f2d0|57|1 509,0,0,0,2,0,0,0,0,0,0,1,0,0,0,512,
scooby_state_43f52f|62|1 511,0,0,0,0,0,0,1,0,0,0,0,0,0,0,512,
scooby_state_43f509|60|1 511,0,0,1,0,0,0,0,0,0,0,0,0,0,0,512,
scooby_state_43f509|61|1 510,0,0,0,1,0,0,0,0,0,0,0,0,1,0,512,
scooby_state_43f509|62|1 512,0,0,0,0,0,0,0,0,0,0,0,0,0,0,512,
scooby_state_43f509|63|1 511,0,0,0,0,0,1,0,0,0,0,0,0,0,0,512,
scooby_state_43f2d0|19|1 512,0,0,0,0,0,0,0,0,0,0,0,0,0,0,512,
scooby_state_43f52f|3|1 510,1,0,0,0,0,0,0,1,0,0,0,0,0,0,512,
scooby_state_43f509|19|1 511,0,0,0,0,1,0,0,0,0,0,0,0,0,0,512,
scooby_state_43f509|59|1 512,0,0,0,0,0,0,0,0,0,0,0,0,0,0,512,
scooby_state_43f2d0|28|1 512,0,0,0,0,0,0,0,0,0,0,0,0,0,0,512,
scooby_state_43f509|11|1 511,0,0,0,0,0,0,0,0,0,0,1,0,0,0,512,
scooby_state_43f2d0|5|1 512,0,0,0,0,0,0,0,0,0,0,0,0,0,0,512,
scooby_state_43f2d0|38|1 512,0,0,0,0,0,0,0,0,0,0,0,0,0,0,512,
scooby_state_43f510|61|1 512,0,0,0,0,0,0,0,0,0,0,0,0,0,0,512,
scooby_state_43f509|49|1 512,0,0,0,0,0,0,0,0,0,0,0,0,0,0,512,
scooby_state_43f509|28|1 512,0,0,0,0,0,0,0,0,0,0,0,0,0,0,512,
scooby_state_43f509|7|1 510,0,0,0,0,0,1,0,0,0,0,0,0,0,1,512,
scooby_state_43f509|18|1 511,0,0,0,0,0,1,0,0,0,0,0,0,0,0,512,
scooby_state_43f510|50|1 512,0,0,0,0,0,0,0,0,0,0,0,0,0,0,512,
scooby_state_43f509|36|1 512,0,0,0,0,0,0,0,0,0,0,0,0,0,0,512,
scooby_state_43f510|51|1 511,0,0,1,0,0,0,0,0,0,0,0,0,0,0,512,
scooby_state_43f509|51|1 512,0,0,0,0,0,0,0,0,0,0,0,0,0,0,512,
scooby_state_43f52f|54|1 512,0,0,0,0,0,0,0,0,0,0,0,0,0,0,512,
scooby_state_43f52f|55|1 509,0,1,0,1,1,0,0,0,0,0,0,0,0,0,512,
scooby_state_43f510|11|1 511,0,0,0,0,0,0,0,0,1,0,0,0,0,0,512,
scooby_state_43f52f|56|1 512,0,0,0,0,0,0,0,0,0,0,0,0,0,0,512,
scooby_state_43f2d0|55|1 512,0,0,0,0,0,0,0,0,0,0,0,0,0,0,512,
scooby_state_43f509|54|1 512,0,0,0,0,0,0,0,0,0,0,0,0,0,0,512,
scooby_state_43f52f|58|1 510,0,0,0,0,0,0,1,0,0,0,0,0,1,0,512,
scooby_state_43f52f|59|1 511,0,0,0,0,0,0,0,0,0,0,1,0,0,0,512,
scooby_state_43f509|57|1 512,0,0,0,0,0,0,0,0,0,0,0,0,0,0,512,
scooby_state_43f2d0|45|1 512,0,0,0,0,0,0,0,0,0,0,0,0,0,0,512,
scooby_state_43f52f|61|1 512,0,0,0,0,0,0,0,0,0,0,0,0,0,0,512,
scooby_state_43f510|59|1 512,0,0,0,0,0,0,0,0,0,0,0,0,0,0,512,
scooby_state_43f2d5|0|0 511,0,0,0,0,0,0,0,0,1,0,0,0,0,0,512,
scooby_state_43f2d0|39|1 511,0,0,0,0,0,1,0,0,0,0,0,0,0,0,512,
scooby_state_43f2d0|63|1 511,0,0,0,0,0,0,0,0,0,0,0,0,1,0,512,
scooby_state_43f2d0|1|1 512,0,0,0,0,0,0,0,0,0,0,0,0,0,0,512,
scooby_state_43f2d0|3|1 512,0,0,0,0,0,0,0,0,0,0,0,0,0,0,512,
scooby_state_43f2d0|6|1 511,0,0,0,0,0,0,0,0,0,0,0,0,1,0,512,
scooby_state_43f2d0|7|1 510,0,0,0,1,0,0,1,0,0,0,0,0,0,0,512,
scooby_state_43f2d0|8|1 511,1,0,0,0,0,0,0,0,0,0,0,0,0,0,512,
scooby_state_43f2d0|9|1 512,0,0,0,0,0,0,0,0,0,0,0,0,0,0,512,
scooby_state_43f2d0|61|1 510,0,0,0,0,0,0,0,1,0,0,0,1,0,0,512,
scooby_state_43f2d0|10|1 512,0,0,0,0,0,0,0,0,0,0,0,0,0,0,512,
scooby_state_43f2d0|31|1 512,0,0,0,0,0,0,0,0,0,0,0,0,0,0,512,
scooby_state_43f2d0|13|1 510,0,0,0,0,0,1,0,0,0,1,0,0,0,0,512,
scooby_state_43f2d0|14|1 512,0,0,0,0,0,0,0,0,0,0,0,0,0,0,512,
scooby_state_43f2d0|16|1 512,0,0,0,0,0,0,0,0,0,0,0,0,0,0,512,
scooby_state_43f510|36|1 512,0,0,0,0,0,0,0,0,0,0,0,0,0,0,512,
scooby_state_43f2d0|17|1 511,0,0,0,0,0,0,0,0,0,0,0,0,1,0,512,
scooby_state_43f2d0|42|1 511,0,0,0,0,0,1,0,0,0,0,0,0,0,0,512,
scooby_state_43f510|27|1 511,0,0,0,0,0,0,0,0,0,0,1,0,0,0,512,
scooby_state_43f2d0|33|1 511,0,0,0,1,0,0,0,0,0,0,0,0,0,0,512,
scooby_state_43f2d0|29|1 511,0,0,1,0,0,0,0,0,0,0,0,0,0,0,512,
scooby_state_43f2d0|30|1 510,0,0,0,0,0,1,0,0,0,1,0,0,0,0,512,
scooby_state_43f52f|11|1 512,0,0,0,0,0,0,0,0,0,0,0,0,0,0,512,
scooby_state_43f2d0|36|1 512,0,0,0,0,0,0,0,0,0,0,0,0,0,0,512,
scooby_state_43f52f|30|1 511,0,1,0,0,0,0,0,0,0,0,0,0,0,0,512,
scooby_state_43f2d0|41|1 511,0,0,0,0,0,0,0,1,0,0,0,0,0,0,512,
scooby_state_43f52f|51|1 511,0,0,0,0,0,1,0,0,0,0,0,0,0,0,512,
scooby_state_43f2d0|43|1 512,0,0,0,0,0,0,0,0,0,0,0,0,0,0,512,
scooby_state_43f2d0|46|1 511,0,0,0,0,0,0,0,1,0,0,0,0,0,0,512,
scooby_state_43f2d0|4|1 512,0,0,0,0,0,0,0,0,0,0,0,0,0,0,512,
scooby_state_43f2d0|47|1 512,0,0,0,0,0,0,0,0,0,0,0,0,0,0,512,
scooby_state_43f510|44|1 511,0,0,1,0,0,0,0,0,0,0,0,0,0,0,512,
scooby_state_43f2d0|52|1 510,0,0,0,0,0,0,1,0,0,1,0,0,0,0,512,
scooby_state_43f2d0|56|1 510,0,0,1,0,0,0,0,0,0,0,0,0,0,1,512,
scooby_state_43f52f|33|1 509,0,0,0,0,0,1,0,0,0,0,0,2,0,0,512,
scooby_state_43f52f|9|1 510,0,0,0,0,0,0,0,0,1,1,0,0,0,0,512,
scooby_state_43f510|21|1 510,0,0,0,1,1,0,0,0,0,0,0,0,0,0,512,
scooby_state_43f2d0|37|1 508,0,0,0,0,0,0,1,0,1,0,1,0,0,1,512,
scooby_state_43f510|29|1 512,0,0,0,0,0,0,0,0,0,0,0,0,0,0,512,
scooby_state_43f510|49|1 511,0,0,0,0,1,0,0,0,0,0,0,0,0,0,512,
scooby_state_43f510|28|1 511,1,0,0,0,0,0,0,0,0,0,0,0,0,0,512,
scooby_state_43f52f|31|1 511,0,0,0,0,0,0,0,0,0,0,0,0,0,1,512,
scooby_state_43f509|30|1 511,0,0,0,0,0,0,0,0,0,1,0,0,0,0,512,
scooby_state_43f52f|4|1 512,0,0,0,0,0,0,0,0,0,0,0,0,0,0,512,
scooby_state_43f52f|37|1 512,0,0,0,0,0,0,0,0,0,0,0,0,0,0,512,
scooby_state_43f510|60|1 512,0,0,0,0,0,0,0,0,0,0,0,0,0,0,512,
scooby_state_43f509|53|1 511,0,0,0,0,0,0,0,0,0,0,1,0,0,0,512,
scooby_state_43f509|10|1 512,0,0,0,0,0,0,0,0,0,0,0,0,0,0,512,
scooby_state_43f510|31|1 512,0,0,0,0,0,0,0,0,0,0,0,0,0,0,512,
scooby_state_43f509|32|1 509,0,0,1,0,0,0,1,0,0,0,0,0,1,0,512,
scooby_state_43f510|13|1 511,0,0,0,0,0,0,0,0,1,0,0,0,0,0,512,
scooby_state_43f510|5|1 511,0,0,0,0,0,0,0,0,0,0,0,1,0,0,512,
scooby_state_43f2d0|48|1 511,0,0,1,0,0,0,0,0,0,0,0,0,0,0,512,
scooby_state_43f510|63|1 510,0,1,0,0,1,0,0,0,0,0,0,0,0,0,512,
scooby_state_43f2d0|58|1 511,1,0,0,0,0,0,0,0,0,0,0,0,0,0,512,
scooby_state_43f2d0|54|1 510,0,0,0,0,0,0,0,0,1,0,0,0,0,1,512,
scooby_state_43f52f|38|1 512,0,0,0,0,0,0,0,0,0,0,0,0,0,0,512,
scooby_state_43f2d0|15|1 511,0,0,0,1,0,0,0,0,0,0,0,0,0,0,512,
scooby_state_43f509|52|1 512,0,0,0,0,0,0,0,0,0,0,0,0,0,0,512,
scooby_state_43f52f|5|1 511,0,0,0,0,0,0,0,0,0,0,1,0,0,0,512,
scooby_state_43f52f|35|1 510,0,0,0,1,0,0,0,0,0,0,0,1,0,0,512,
scooby_state_43f510|54|1 512,0,0,0,0,0,0,0,0,0,0,0,0,0,0,512,
scooby_state_43f2d0|32|1 512,0,0,0,0,0,0,0,0,0,0,0,0,0,0,512,
scooby_state_43f510|12|1 512,0,0,0,0,0,0,0,0,0,0,0,0,0,0,512,
scooby_state_43f509|25|1 512,0,0,0,0,0,0,0,0,0,0,0,0,0,0,512,
scooby_state_43f52f|24|1 510,0,0,0,0,0,0,0,1,1,0,0,0,0,0,512,
scooby_state_43f510|35|1 510,0,0,0,0,0,0,0,0,0,0,0,1,0,1,512,
scooby_state_43f2d0|53|1 511,0,0,0,1,0,0,0,0,0,0,0,0,0,0,512,
scooby_state_43f52f|47|1 512,0,0,0,0,0,0,0,0,0,0,0,0,0,0,512,
scooby_state_43f509|44|1 509,0,0,0,1,0,0,0,0,1,0,0,1,0,0,512,
scooby_state_43f2d0|44|1 511,0,0,0,0,0,0,0,0,0,0,0,1,0,0,512,
scooby_state_43f509|45|1 510,0,0,0,2,0,0,0,0,0,0,0,0,0,0,512,
scooby_state_43f510|53|1 512,0,0,0,0,0,0,0,0,0,0,0,0,0,0,512,
scooby_state_43f510|45|1 512,0,0,0,0,0,0,0,0,0,0,0,0,0,0,512,
scooby_state_43f52f|17|1 511,0,0,0,0,0,0,0,1,0,0,0,0,0,0,512,
scooby_state_43f52f|48|1 507,1,1,1,0,0,0,1,0,0,0,1,0,0,0,512,
scooby_state_43f510|46|1 512,0,0,0,0,0,0,0,0,0,0,0,0,0,0,512,
scooby_state_43f509|40|1 512,0,0,0,0,0,0,0,0,0,0,0,0,0,0,512,
scooby_state_43f509|46|1 512,0,0,0,0,0,0,0,0,0,0,0,0,0,0,512,
scooby_state_43f52f|49|1 512,0,0,0,0,0,0,0,0,0,0,0,0,0,0,512,
scooby_state_43f510|33|1 512,0,0,0,0,0,0,0,0,0,0,0,0,0,0,512,
scooby_state_43f510|47|1 511,0,0,0,0,0,0,0,1,0,0,0,0,0,0,512,
scooby_state_43f509|47|1 512,0,0,0,0,0,0,0,0,0,0,0,0,0,0,512,
scooby_state_43f52f|50|1 510,0,0,1,0,0,0,0,0,0,0,0,0,0,1,512,
scooby_state_43f509|33|1 512,0,0,0,0,0,0,0,0,0,0,0,0,0,0,512,
scooby_state_43f52f|60|1 511,0,0,0,0,0,0,0,1,0,0,0,0,0,0,512,
scooby_state_43f510|55|1 511,1,0,0,0,0,0,0,0,0,0,0,0,0,0,512,
scooby_state_43f509|34|1 512,0,0,0,0,0,0,0,0,0,0,0,0,0,0,512,
scooby_state_43f52f|16|1 511,0,0,1,0,0,0,0,0,0,0,0,0,0,0,512,
scooby_state_43f2d0|35|1 512,0,0,0,0,0,0,0,0,0,0,0,0,0,0,512,
scooby_state_43f52f|40|1 512,0,0,0,0,0,0,0,0,0,0,0,0,0,0,512,
scooby_state_43f510|38|1 512,0,0,0,0,0,0,0,0,0,0,0,0,0,0,512,
scooby_state_43f509|38|1 512,0,0,0,0,0,0,0,0,0,0,0,0,0,0,512,
scooby_state_43f510|25|1 511,1,0,0,0,0,0,0,0,0,0,0,0,0,0,512,
scooby_state_43f509|3|1 510,0,0,0,0,1,0,0,0,1,0,0,0,0,0,512,
scooby_state_43f510|58|1 512,0,0,0,0,0,0,0,0,0,0,0,0,0,0,512,
scooby_state_43f510|40|1 512,0,0,0,0,0,0,0,0,0,0,0,0,0,0,512,
scooby_state_43f509|41|1 509,0,0,0,1,0,0,1,0,1,0,0,0,0,0,512,
scooby_state_43f52f|44|1 510,0,0,0,0,1,0,0,0,0,0,0,0,1,0,512,
scooby_state_43f509|27|1 511,0,0,0,0,0,0,0,0,0,0,1,0,0,0,512,
scooby_state_43f509|42|1 510,0,0,1,0,0,0,0,0,0,0,0,1,0,0,512,
scooby_state_43f510|43|1 510,0,0,0,0,1,0,0,0,0,0,0,1,0,0,512,
scooby_state_43f510|48|1 511,0,0,0,0,1,0,0,0,0,0,0,0,0,0,512,
scooby_state_43f509|17|1 511,0,0,0,0,1,0,0,0,0,0,0,0,0,0,512,
scooby_state_43f509|37|1 512,0,0,0,0,0,0,0,0,0,0,0,0,0,0,512,
scooby_state_43f52f|29|1 511,0,0,0,0,1,0,0,0,0,0,0,0,0,0,512,
scooby_state_43f52f|10|1 510,1,0,0,0,0,0,0,0,1,0,0,0,0,0,512,
scooby_state_43f510|8|1 512,0,0,0,0,0,0,0,0,0,0,0,0,0,0,512,
scooby_state_43f52f|41|1 512,0,0,0,0,0,0,0,0,0,0,0,0,0,0,512,
scooby_state_43f509|21|1 512,0,0,0,0,0,0,0,0,0,0,0,0,0,0,512,
scooby_state_43f52f|14|1 511,0,0,0,1,0,0,0,0,0,0,0,0,0,0,512,
scooby_state_43f509|26|1 512,0,0,0,0,0,0,0,0,0,0,0,0,0,0,512,
scooby_state_43f510|9|1 510,0,0,0,0,0,0,0,0,1,0,0,1,0,0,512,
scooby_state_43f510|32|1 511,1,0,0,0,0,0,0,0,0,0,0,0,0,0,512,
scooby_state_43f510|6|1 512,0,0,0,0,0,0,0,0,0,0,0,0,0,0,512,
scooby_state_43f509|15|1 512,0,0,0,0,0,0,0,0,0,0,0,0,0,0,512,
scooby_state_43f2d0|60|1 511,0,1,0,0,0,0,0,0,0,0,0,0,0,0,512,
scooby_state_43f52f|15|1 512,0,0,0,0,0,0,0,0,0,0,0,0,0,0,512,
scooby_state_43f509|24|1 511,0,0,0,0,0,0,0,0,0,1,0,0,0,0,512,
scooby_state_43f2d0|23|1 511,0,0,0,0,0,0,0,1,0,0,0,0,0,0,512,
scooby_state_43f509|22|1 509,0,1,0,2,0,0,0,0,0,0,0,0,0,0,512,
scooby_state_43f52f|18|1 510,0,1,1,0,0,0,0,0,0,0,0,0,0,0,512,
scooby_state_43f510|18|1 511,0,0,0,0,0,0,0,0,0,0,1,0,0,0,512,
scooby_state_43f52f|22|1 508,0,0,0,0,0,0,0,0,2,1,0,1,0,0,512,
scooby_state_43f2d0|22|1 510,0,0,1,0,0,1,0,0,0,0,0,0,0,0,512,
scooby_state_43f510|42|1 510,0,0,0,0,0,0,1,0,0,0,0,1,0,0,512,
scooby_state_43f52f|21|1 511,0,0,0,0,0,0,1,0,0,0,0,0,0,0,512,
scooby_state_43f510|62|1 512,0,0,0,0,0,0,0,0,0,0,0,0,0,0,512,
scooby_state_43f2d0|25|1 511,0,0,0,0,0,0,0,0,0,0,0,0,1,0,512,
scooby_state_43f52f|26|1 510,1,0,0,0,0,0,0,0,0,0,0,0,0,1,512,
scooby_state_43f2d0|20|1 510,0,0,0,0,0,0,0,0,0,0,0,0,0,2,512,
scooby_state_43f509|12|1 509,1,0,0,0,0,1,0,0,1,0,0,0,0,0,512,
scooby_state_43f509|20|1 512,0,0,0,0,0,0,0,0,0,0,0,0,0,0,512,
scooby_state_43f509|2|1 512,0,0,0,0,0,0,0,0,0,0,0,0,0,0,512,
scooby_state_43f509|43|1 509,0,0,0,0,0,0,0,0,0,0,0,1,1,1,512,
scooby_state_43f2d0|62|1 512,0,0,0,0,0,0,0,0,0,0,0,0,0,0,512,
scooby_state_43f52f|12|1 510,1,0,0,0,0,0,0,0,0,0,0,0,0,1,512,
scooby_state_43f510|23|1 510,0,0,0,1,0,0,0,0,0,0,0,0,0,1,512,
scooby_state_43f52f|13|1 512,0,0,0,0,0,0,0,0,0,0,0,0,0,0,512,
scooby_state_43f52f|6|1 511,0,0,0,0,0,0,1,0,0,0,0,0,0,0,512,
scooby_state_43f2d0|24|1 510,0,0,0,0,0,1,0,0,1,0,0,0,0,0,512,
scooby_state_43f52f|27|1 512,0,0,0,0,0,0,0,0,0,0,0,0,0,0,512,
scooby_state_43f52f|7|1 512,0,0,0,0,0,0,0,0,0,0,0,0,0,0,512,
scooby_state_43f2d0|49|1 511,0,0,0,0,0,0,0,0,0,0,0,0,1,0,512,
scooby_state_43f52f|53|1 510,0,0,1,0,0,0,0,0,0,0,0,0,0,1,512,
scooby_state_43f510|26|1 512,0,0,0,0,0,0,0,0,0,0,0,0,0,0,512,
scooby_state_43f510|19|1 512,0,0,0,0,0,0,0,0,0,0,0,0,0,0,512,
scooby_state_43f2d5|1|1 503,0,0,0,0,0,0,0,0,0,0,0,0,0,0,503,
scooby_state_43f2d5|4|1 502,0,0,0,0,1,0,0,0,0,0,0,0,0,0,503,
scooby_state_43f2d5|10|1 500,0,0,0,0,0,0,0,0,1,0,0,0,0,0,501,
scooby_state_43f2d5|5|1 499,0,0,0,0,0,0,1,0,0,0,0,0,0,0,500,
scooby_state_43f2d5|2|1 499,0,0,0,0,0,0,0,0,0,0,0,0,0,0,499,
scooby_state_43f2d5|3|1 499,0,0,0,0,0,0,0,0,0,0,0,0,0,0,499,
scooby_state_43f5b2|59|1 0,1,1,1,1,1,1,1,1,1,1,1,487,0,0,498,
scooby_state_43f2d5|11|1 496,0,0,0,0,0,0,0,0,0,0,0,1,0,0,497,
scooby_state_43f2d5|12|1 495,0,0,1,0,0,0,0,0,0,0,0,0,0,0,496,
scooby_state_43f2d5|6|1 496,0,0,0,0,0,0,0,0,0,0,0,0,0,0,496,
scooby_state_43f5ed|51|-8 496,0,0,0,0,0,0,0,0,0,0,0,0,0,0,496,
scooby_state_43f2d5|9|1 494,0,0,1,0,0,0,0,0,0,0,0,0,0,0,495,
scooby_state_43f5c5|49|-8 492,0,1,0,0,0,0,0,0,0,0,0,1,0,0,494,
scooby_state_43f2d5|14|1 491,0,0,0,0,0,1,0,0,0,1,0,0,0,0,493,
scooby_state_43f2d5|7|1 493,0,0,0,0,0,0,0,0,0,0,0,0,0,0,493,
scooby_state_43f2d5|8|1 492,0,0,0,0,0,0,0,0,0,0,0,0,0,0,492,
scooby_state_43f2d5|31|1 490,0,0,0,0,0,0,0,0,0,0,1,0,0,0,491,
scooby_state_43f2d5|15|1 489,0,0,0,0,0,0,0,0,0,0,1,0,0,0,490,
scooby_state_43f2d5|13|1 489,0,0,0,0,0,0,0,0,0,0,1,0,0,0,490,
scooby_state_43f2d5|16|1 489,0,0,1,0,0,0,0,0,0,0,0,0,0,0,490,
scooby_state_43f490|56|5 489,0,0,0,0,0,0,0,0,0,0,0,0,0,0,489,
scooby_state_43f2d5|54|1 489,0,0,0,0,0,0,0,0,0,0,0,0,0,0,489,
scooby_state_43f2d5|17|1 485,0,0,0,0,0,0,1,0,0,0,0,0,0,0,486,
scooby_state_43f2d5|32|1 481,0,0,1,0,2,0,1,0,0,0,0,1,0,0,486,
scooby_state_43f2d5|30|1 485,0,0,0,0,0,0,1,0,0,0,0,0,0,0,486,
scooby_state_43f2d5|18|1 483,1,0,0,0,0,0,0,0,1,0,0,0,0,0,485,
scooby_state_43f2d5|19|1 483,0,0,0,0,0,1,0,0,0,0,0,0,0,0,484,
scooby_state_43f2d5|23|1 484,0,0,0,0,0,0,0,0,0,0,0,0,0,0,484,
scooby_state_43f2d5|26|1 483,0,0,0,1,0,0,0,0,0,0,0,0,0,0,484,
scooby_state_43f2d5|21|1 483,0,0,0,0,0,0,0,0,0,0,0,0,0,0,483,
scooby_state_43f2d5|29|1 481,0,0,0,0,0,0,0,1,0,0,0,1,0,0,483,
scooby_state_43f2d5|27|1 482,0,0,0,0,0,0,0,0,0,0,0,1,0,0,483,
scooby_state_43f2d5|25|1 482,0,0,0,0,0,0,0,0,0,0,0,0,0,0,482,
scooby_state_43f2d5|24|1 481,0,0,0,0,0,0,0,0,0,0,0,0,0,0,481,
scooby_state_43f2d5|22|1 481,0,0,0,0,0,0,0,0,0,0,0,0,0,0,481,
scooby_state_43f2d5|33|1 478,0,0,0,0,0,1,0,0,1,1,0,0,0,0,481,
scooby_state_43f2d5|38|1 479,0,0,0,0,0,0,0,0,0,0,1,0,0,0,480,
scooby_state_43f2d5|36|1 478,0,0,0,0,0,0,0,0,0,0,0,0,0,1,479,
scooby_state_43f2d5|46|1 479,0,0,0,0,0,0,0,0,0,0,0,0,0,0,479,
scooby_state_43f2d5|28|1 478,0,0,0,0,0,0,1,0,0,0,0,0,0,0,479,
scooby_state_43f2d5|37|1 477,1,0,0,0,0,0,0,1,0,0,0,0,0,0,479,
scooby_state_43f2d5|20|1 477,0,0,0,0,0,0,0,0,0,0,1,0,0,0,478,
scooby_state_43f2d5|34|1 476,0,0,0,0,0,0,0,0,0,0,1,1,0,0,478,
scooby_state_43f576|58|9 476,0,0,0,0,0,0,0,0,0,0,0,0,0,1,477,
scooby_state_43f2d5|44|1 477,0,0,0,0,0,0,0,0,0,0,0,0,0,0,477,
scooby_state_43f2d5|48|1 476,0,0,0,0,0,0,0,0,0,0,1,0,0,0,477,
scooby_state_43f2d5|40|1 475,1,0,0,0,0,0,0,0,0,0,0,0,0,0,476,
scooby_state_43f2d5|39|1 475,0,0,0,0,1,0,0,0,0,0,0,0,0,0,476,
scooby_state_43f2d5|35|1 475,0,0,0,0,0,0,0,0,0,0,0,0,0,0,475,
scooby_state_43f2d5|47|1 474,0,0,0,0,0,0,0,0,0,0,0,0,0,1,475,
scooby_state_43f2d5|42|1 473,0,1,0,0,0,0,0,0,0,0,0,0,0,0,474,
scooby_state_43f2d5|43|1 472,0,1,0,0,0,0,0,0,0,0,0,0,0,0,473,
scooby_state_43f2d5|53|1 472,0,0,0,0,0,0,0,0,0,0,0,0,0,0,472,
scooby_state_43f2d5|45|1 472,0,0,0,0,0,0,0,0,0,0,0,0,0,0,472,
scooby_state_43f2d5|52|1 472,0,0,0,0,0,0,0,0,0,0,0,0,0,0,472,
scooby_state_43f2d5|50|1 471,0,0,0,0,0,0,0,0,0,0,0,0,0,0,471,
scooby_state_43f2d5|49|1 468,1,0,0,0,1,0,0,0,0,0,1,0,0,0,471,
scooby_state_43f2d5|51|1 470,0,0,0,0,0,0,0,0,0,0,0,0,0,0,470,
scooby_state_43f2d5|41|1 468,0,0,0,0,0,0,0,0,0,1,0,0,0,0,469,
scooby_state_43f2d5|55|1 446,0,0,0,0,0,0,0,0,0,0,0,0,0,0,446,
scooby_state_43f2d5|56|1 420,0,0,0,0,0,0,0,0,0,0,0,0,0,0,420,
scooby_state_43f4b0|57|1 7,1,1,1,1,1,1,1,1,1,1,401,0,0,0,418,
scooby_state_43f2d5|57|1 406,0,0,0,0,0,0,0,0,0,0,0,0,0,0,406,
scooby_state_445440|30|1 405,0,0,0,1,0,0,0,0,0,0,0,0,0,0,406,
scooby_state_445440|27|1 405,0,0,0,1,0,0,0,0,0,0,0,0,0,0,406,
scooby_state_445440|32|1 406,0,0,0,0,0,0,0,0,0,0,0,0,0,0,406,
scooby_state_445440|31|1 406,0,0,0,0,0,0,0,0,0,0,0,0,0,0,406,
scooby_state_445440|29|1 406,0,0,0,0,0,0,0,0,0,0,0,0,0,0,406,
scooby_state_445440|26|1 406,0,0,0,0,0,0,0,0,0,0,0,0,0,0,406,
scooby_state_445440|34|1 406,0,0,0,0,0,0,0,0,0,0,0,0,0,0,406,
scooby_state_445440|33|1 405,0,0,0,0,0,1,0,0,0,0,0,0,0,0,406,
scooby_state_445440|28|1 406,0,0,0,0,0,0,0,0,0,0,0,0,0,0,406,
scooby_state_445440|58|1 403,0,1,1,0,0,0,0,0,0,0,0,0,0,0,405,
scooby_state_445440|1|1 405,0,0,0,0,0,0,0,0,0,0,0,0,0,0,405,
scooby_state_445440|48|1 405,0,0,0,0,0,0,0,0,0,0,0,0,0,0,405,
scooby_state_445440|42|1 405,0,0,0,0,0,0,0,0,0,0,0,0,0,0,405,
scooby_state_445440|2|1 404,1,0,0,0,0,0,0,0,0,0,0,0,0,0,405,
scooby_state_445440|13|1 405,0,0,0,0,0,0,0,0,0,0,0,0,0,0,405,
scooby_state_445440|60|1 405,0,0,0,0,0,0,0,0,0,0,0,0,0,0,405,
scooby_state_445440|37|1 404,0,0,0,1,0,0,0,0,0,0,0,0,0,0,405,
scooby_state_445440|9|1 405,0,0,0,0,0,0,0,0,0,0,0,0,0,0,405,
scooby_state_445440|12|1 404,0,0,0,0,0,0,1,0,0,0,0,0,0,0,405,
scooby_state_445440|22|1 403,0,0,0,1,0,0,0,1,0,0,0,0,0,0,405,
scooby_state_445440|53|1 405,0,0,0,0,0,0,0,0,0,0,0,0,0,0,405,
scooby_state_445440|18|1 404,0,0,0,0,0,0,0,0,0,1,0,0,0,0,405,
scooby_state_445440|3|1 405,0,0,0,0,0,0,0,0,0,0,0,0,0,0,405,
scooby_state_445440|52|1 405,0,0,0,0,0,0,0,0,0,0,0,0,0,0,405,
scooby_state_445440|11|1 404,0,0,0,0,0,0,0,1,0,0,0,0,0,0,405,
scooby_state_445440|19|1 405,0,0,0,0,0,0,0,0,0,0,0,0,0,0,405,
scooby_state_445440|25|1 405,0,0,0,0,0,0,0,0,0,0,0,0,0,0,405,
scooby_state_445440|23|1 404,1,0,0,0,0,0,0,0,0,0,0,0,0,0,405,
scooby_state_445440|21|1 404,0,0,0,0,0,0,0,0,0,1,0,0,0,0,405,
scooby_state_445440|4|1 405,0,0,0,0,0,0,0,0,0,0,0,0,0,0,405,
scooby_state_445440|57|1 404,0,0,0,0,0,0,0,0,1,0,0,0,0,0,405,
scooby_state_445440|20|1 404,0,0,0,0,0,0,0,0,1,0,0,0,0,0,405,
scooby_state_445440|38|1 403,0,0,0,0,0,0,0,0,0,2,0,0,0,0,405,
scooby_state_445440|39|1 404,1,0,0,0,0,0,0,0,0,0,0,0,0,0,405,
scooby_state_445440|43|1 405,0,0,0,0,0,0,0,0,0,0,0,0,0,0,405,
scooby_state_445440|24|1 405,0,0,0,0,0,0,0,0,0,0,0,0,0,0,405,
scooby_state_445440|17|1 405,0,0,0,0,0,0,0,0,0,0,0,0,0,0,405,
scooby_state_445440|40|1 405,0,0,0,0,0,0,0,0,0,0,0,0,0,0,405,
scooby_state_445440|15|1 404,0,0,0,0,0,0,0,0,0,0,0,0,1,0,405,
scooby_state_445440|41|1 405,0,0,0,0,0,0,0,0,0,0,0,0,0,0,405,
scooby_state_445440|0|0 403,1,0,0,0,0,0,0,0,0,0,1,0,0,0,405,
scooby_state_445440|63|1 405,0,0,0,0,0,0,0,0,0,0,0,0,0,0,405,
scooby_state_445440|36|1 403,0,0,0,0,0,0,1,0,0,0,0,0,0,1,405,
scooby_state_445440|55|1 404,0,0,0,0,0,0,0,0,1,0,0,0,0,0,405,
scooby_state_445440|10|1 405,0,0,0,0,0,0,0,0,0,0,0,0,0,0,405,
scooby_state_445440|47|1 405,0,0,0,0,0,0,0,0,0,0,0,0,0,0,405,
scooby_state_445440|5|1 405,0,0,0,0,0,0,0,0,0,0,0,0,0,0,405,
scooby_state_445440|51|1 404,0,0,0,0,0,0,0,0,0,1,0,0,0,0,405,
scooby_state_445440|54|1 405,0,0,0,0,0,0,0,0,0,0,0,0,0,0,405,
scooby_state_445440|35|1 404,0,0,0,0,1,0,0,0,0,0,0,0,0,0,405,
scooby_state_445440|56|1 404,1,0,0,0,0,0,0,0,0,0,0,0,0,0,405,
scooby_state_445440|59|1 404,0,0,0,1,0,0,0,0,0,0,0,0,0,0,405,
scooby_state_445440|45|1 403,0,0,0,0,0,1,1,0,0,0,0,0,0,0,405,
scooby_state_445440|44|1 405,0,0,0,0,0,0,0,0,0,0,0,0,0,0,405,
scooby_state_445440|49|1 403,1,0,1,0,0,0,0,0,0,0,0,0,0,0,405,
scooby_state_445440|7|1 403,0,0,0,0,1,0,0,0,0,0,1,0,0,0,405,
scooby_state_445440|8|1 403,0,0,0,0,1,0,0,0,0,0,0,1,0,0,405,
scooby_state_445440|61|1 405,0,0,0,0,0,0,0,0,0,0,0,0,0,0,405,
scooby_state_445440|50|1 405,0,0,0,0,0,0,0,0,0,0,0,0,0,0,405,
scooby_state_445440|46|1 405,0,0,0,0,0,0,0,0,0,0,0,0,0,0,405,
scooby_state_445440|16|1 405,0,0,0,0,0,0,0,0,0,0,0,0,0,0,405,
scooby_state_445440|62|1 405,0,0,0,0,0,0,0,0,0,0,0,0,0,0,405,
scooby_state_445440|14|1 402,0,0,2,0,0,0,0,0,0,1,0,0,0,0,405,
scooby_state_445440|6|1 402,0,0,0,1,0,0,0,0,0,0,0,1,0,0,404,
scooby_state_43f2d5|58|1 352,0,0,0,0,0,0,0,0,0,0,0,0,1,0,353,
scooby_state_43f2d5|63|1 327,0,0,0,0,0,1,0,0,0,0,0,0,0,0,328,
scooby_state_43f2d5|62|1 304,0,0,0,0,0,0,0,0,0,0,1,0,0,0,305,
scooby_state_43f2d5|60|2 272,0,0,0,0,0,0,0,0,0,0,0,0,0,0,272,
scooby_state_43f2d5|61|1 264,0,0,0,1,0,0,0,0,0,0,0,0,0,0,265,
scooby_state_4453e0|59|1 230,0,0,0,0,0,0,0,0,0,0,0,0,0,0,230,
scooby_state_4453e0|56|1 230,0,0,0,0,0,0,0,0,0,0,0,0,0,0,230,
scooby_state_4453e0|53|1 229,0,0,0,0,0,0,0,0,0,0,0,1,0,0,230,
scooby_state_4453e0|50|1 230,0,0,0,0,0,0,0,0,0,0,0,0,0,0,230,
scooby_state_4453e0|58|1 228,0,0,1,0,0,0,0,0,0,0,0,0,0,0,229,
scooby_state_4453e0|51|1 228,0,0,0,0,0,1,0,0,0,0,0,0,0,0,229,
scooby_state_4453e0|55|1 229,0,0,0,0,0,0,0,0,0,0,0,0,0,0,229,
scooby_state_4453e0|52|1 229,0,0,0,0,0,0,0,0,0,0,0,0,0,0,229,
scooby_state_4453e0|54|1 229,0,0,0,0,0,0,0,0,0,0,0,0,0,0,229,
scooby_state_4453e0|57|1 229,0,0,0,0,0,0,0,0,0,0,0,0,0,0,229,
scooby_state_4453e0|60|1 228,0,0,0,0,0,0,0,0,0,0,0,0,0,0,228,
scooby_state_4453e0|49|1 227,0,1,0,0,0,0,0,0,0,0,0,0,0,0,228,
scooby_state_4453e0|48|1 224,0,0,0,0,1,0,0,0,0,0,0,0,0,0,225,
scooby_state_4453e0|61|1 225,0,0,0,0,0,0,0,0,0,0,0,0,0,0,225,
scooby_state_4453e0|62|1 223,0,0,0,0,0,0,0,0,0,0,0,0,0,0,223,
scooby_state_4453e0|0|0 223,0,0,0,0,0,0,0,0,0,0,0,0,0,0,223,
scooby_state_4453e0|47|1 223,0,0,0,0,0,0,0,0,0,0,0,0,0,0,223,
scooby_state_4453e0|63|1 220,0,0,0,0,0,0,0,0,0,0,0,0,0,0,220,
scooby_state_4453e0|46|1 220,0,0,0,0,0,0,0,0,0,0,0,0,0,0,220,
scooby_state_4453e0|45|1 217,0,0,0,0,0,0,0,0,0,0,0,0,0,0,217,
scooby_state_43f2d5|59|1 216,0,0,0,0,0,0,0,0,0,0,0,0,0,0,216,
scooby_state_4453e0|1|1 214,0,0,0,0,0,0,0,1,0,0,0,0,0,0,215,
scooby_state_4453e0|44|1 214,1,0,0,0,0,0,0,0,0,0,0,0,0,0,215,
scooby_state_4453e0|2|1 212,0,0,0,0,0,0,0,0,0,0,0,0,0,0,212,
scooby_state_4453e0|43|1 212,0,0,0,0,0,0,0,0,0,0,0,0,0,0,212,
scooby_state_43f2d5|60|1 210,0,0,0,0,0,0,0,0,0,0,0,0,0,0,210,
scooby_state_4453e0|3|1 209,0,0,0,0,0,0,0,0,0,0,0,0,0,0,209,
scooby_state_4453e0|42|1 209,0,0,0,0,0,0,0,0,0,0,0,0,0,0,209,
scooby_state_4453e0|41|1 206,1,0,0,0,0,0,0,0,0,0,0,0,0,0,207,
scooby_state_4453e0|4|1 206,0,1,0,0,0,0,0,0,0,0,0,0,0,0,207,
scooby_state_4453e0|5|1 204,0,0,0,0,0,0,0,0,0,0,0,0,0,0,204,
scooby_state_4453e0|40|1 204,0,0,0,0,0,0,0,0,0,0,0,0,0,0,204,
scooby_state_4453e0|6|1 201,0,0,0,0,0,0,0,0,0,0,0,0,0,0,201,
scooby_state_4453e0|39|1 200,0,0,0,1,0,0,0,0,0,0,0,0,0,0,201,
scooby_state_4453e0|7|1 199,0,0,0,0,0,0,0,0,0,0,0,0,0,0,199,
scooby_state_4453e0|38|1 199,0,0,0,0,0,0,0,0,0,0,0,0,0,0,199,
scooby_state_4453e0|8|1 195,0,0,0,0,0,0,0,1,0,0,0,0,0,0,196,
scooby_state_4453e0|37|1 195,0,0,0,0,0,0,0,0,0,0,0,0,1,0,196,
scooby_state_4453e0|36|1 192,0,1,0,0,0,0,0,0,0,0,0,0,0,0,193,
scooby_state_4453e0|9|1 192,0,0,0,0,0,0,0,0,0,0,0,1,0,0,193,
scooby_state_4453e0|35|1 190,0,0,0,0,1,0,0,0,0,0,0,0,0,0,191,
scooby_state_4453e0|10|1 191,0,0,0,0,0,0,0,0,0,0,0,0,0,0,191,
scooby_state_4453e0|34|1 188,0,0,0,0,0,0,0,0,0,0,0,0,0,0,188,
scooby_state_4453e0|11|1 188,0,0,0,0,0,0,0,0,0,0,0,0,0,0,188,
scooby_state_4453e0|33|1 184,0,0,0,0,1,0,0,0,0,0,0,0,0,0,185,
scooby_state_4453e0|12|1 185,0,0,0,0,0,0,0,0,0,0,0,0,0,0,185,
scooby_state_4453e0|32|1 183,0,0,0,0,0,0,0,0,0,0,0,0,0,0,183,
scooby_state_4453e0|13|1 183,0,0,0,0,0,0,0,0,0,0,0,0,0,0,183,
scooby_state_43f2d5|63|2 182,0,0,0,0,0,0,0,0,0,0,0,0,0,0,182,
scooby_state_4453e0|31|1 180,0,0,0,0,0,0,0,0,0,0,0,0,0,0,180,
scooby_state_4453e0|14|1 180,0,0,0,0,0,0,0,0,0,0,0,0,0,0,180,
scooby_state_4453e0|15|1 177,0,0,0,0,0,0,0,0,0,0,0,0,0,0,177,
scooby_state_4453e0|30|1 177,0,0,0,0,0,0,0,0,0,0,0,0,0,0,177,
scooby_state_4453e0|16|1 174,0,0,0,0,1,0,0,0,0,0,0,0,0,0,175,
scooby_state_4453e0|29|1 175,0,0,0,0,0,0,0,0,0,0,0,0,0,0,175,
scooby_state_43f2d5|59|-1 173,0,0,0,0,0,0,0,0,0,0,0,0,0,0,173,
scooby_state_4453e0|28|1 171,0,0,1,0,0,0,0,0,0,0,0,0,0,0,172,
scooby_state_4453e0|17|1 171,0,0,0,0,0,0,0,0,1,0,0,0,0,0,172,
scooby_state_4453e0|25|1 171,0,0,0,0,0,0,0,0,0,0,0,0,0,0,171,
scooby_state_4453e0|19|1 171,0,0,0,0,0,0,0,0,0,0,0,0,0,0,171,
scooby_state_4453e0|22|1 171,0,0,0,0,0,0,0,0,0,0,0,0,0,0,171,
scooby_state_4453e0|23|1 171,0,0,0,0,0,0,0,0,0,0,0,0,0,0,171,
scooby_state_4453e0|20|1 171,0,0,0,0,0,0,0,0,0,0,0,0,0,0,171,
scooby_state_4453e0|26|1 170,0,0,0,0,0,0,0,0,0,1,0,0,0,0,171,
scooby_state_4453e0|27|1 170,0,0,0,0,0,0,0,0,0,0,0,0,0,0,170,
scooby_state_4453e0|18|1 170,0,0,0,0,0,0,0,0,0,0,0,0,0,0,170,
scooby_state_4453e0|21|1 170,0,0,0,0,0,0,0,0,0,0,0,0,0,0,170,
scooby_state_4453e0|24|1 168,0,0,0,1,0,0,0,0,0,1,0,0,0,0,170,
scooby_state_43f2d5|61|2 167,0,0,0,0,0,0,0,0,0,0,0,0,0,0,167,
scooby_state_43f2d5|59|2 119,0,0,0,0,0,0,0,0,0,0,0,0,0,0,119,
scooby_state_43f2d5|62|-1 107,0,0,0,0,0,0,0,0,0,0,0,0,0,0,107,
scooby_state_43f2d5|58|-1 105,0,0,0,0,0,0,0,0,0,0,0,0,0,0,105,
scooby_state_43f2d5|57|2 88,0,0,0,0,0,0,0,0,0,0,0,0,0,0,88,
scooby_state_43f2d5|61|-1 78,0,0,0,0,0,0,0,0,0,0,0,0,0,0,78,
scooby_state_43f2d5|62|2 72,0,0,0,0,0,0,0,0,0,0,0,0,0,0,72,
scooby_state_43f2d5|55|-1 58,0,0,0,0,0,0,0,0,0,0,0,0,0,0,58,
scooby_state_43f2d5|56|2 56,0,0,0,0,0,0,0,0,0,0,0,0,0,0,56,
scooby_state_43f2d5|58|2 51,0,0,0,0,0,0,0,0,0,0,0,0,0,0,51,
scooby_state_43f58c|57|1 0,1,1,1,1,1,1,1,1,1,1,31,0,0,0,41,
scooby_state_43f576|58|2 34,0,0,0,0,0,0,0,0,0,0,0,0,0,0,34,
scooby_state_43f2d5|56|-1 33,0,0,0,0,0,0,0,0,0,0,0,0,0,0,33,
scooby_state_43f2d5|53|2 28,0,0,0,0,0,0,0,0,0,0,0,0,1,0,29,
scooby_state_43f2d5|62|3 29,0,0,0,0,0,0,0,0,0,0,0,0,0,0,29,
scooby_state_43f2d5|43|2 27,0,0,0,0,0,0,0,0,0,0,0,0,0,0,27,
scooby_state_43f2d5|50|2 27,0,0,0,0,0,0,0,0,0,0,0,0,0,0,27,
scooby_state_43f2d5|42|2 26,0,0,0,0,0,0,0,0,0,0,0,0,0,0,26,
scooby_state_43f2d5|51|2 26,0,0,0,0,0,0,0,0,0,0,0,0,0,0,26,
scooby_state_43f2d5|52|2 26,0,0,0,0,0,0,0,0,0,0,0,0,0,0,26,
scooby_state_43f2d5|49|2 26,0,0,0,0,0,0,0,0,0,0,0,0,0,0,26,
scooby_state_43f2d5|41|2 25,0,0,0,0,0,0,0,0,0,0,0,0,0,0,25,
scooby_state_43f2d5|46|2 25,0,0,0,0,0,0,0,0,0,0,0,0,0,0,25,
scooby_state_43f2d5|60|-1 24,0,0,0,0,0,0,0,0,0,0,0,0,0,0,24,
scooby_state_43f2d5|34|2 24,0,0,0,0,0,0,0,0,0,0,0,0,0,0,24,
scooby_state_43f2d5|36|2 23,0,0,0,0,0,0,0,0,0,0,0,0,0,0,23,
scooby_state_43f2d5|40|2 23,0,0,0,0,0,0,0,0,0,0,0,0,0,0,23,
scooby_state_43f58c|57|6 1,1,1,1,1,1,1,1,1,1,1,12,0,0,0,23,
scooby_state_43f2d5|29|2 23,0,0,0,0,0,0,0,0,0,0,0,0,0,0,23,
scooby_state_43f2d5|45|2 23,0,0,0,0,0,0,0,0,0,0,0,0,0,0,23,
scooby_state_43f490|56|7 22,0,0,0,0,0,0,0,0,0,0,0,0,0,0,22,
scooby_state_43f2d5|35|2 22,0,0,0,0,0,0,0,0,0,0,0,0,0,0,22,
scooby_state_43f2d5|21|2 22,0,0,0,0,0,0,0,0,0,0,0,0,0,0,22,
scooby_state_43f2d5|19|2 20,0,0,0,0,0,0,0,0,0,1,0,0,0,0,21,
scooby_state_43f2d5|24|2 21,0,0,0,0,0,0,0,0,0,0,0,0,0,0,21,
scooby_state_43f2d5|44|2 21,0,0,0,0,0,0,0,0,0,0,0,0,0,0,21,
scooby_state_43f2d5|54|2 21,0,0,0,0,0,0,0,0,0,0,0,0,0,0,21,
scooby_state_43f2d5|37|2 21,0,0,0,0,0,0,0,0,0,0,0,0,0,0,21,
scooby_state_43f2d5|57|-1 20,0,0,0,0,0,0,0,0,0,0,0,0,0,0,20,
scooby_state_43f2d5|39|2 20,0,0,0,0,0,0,0,0,0,0,0,0,0,0,20,
scooby_state_43f2d5|47|2 20,0,0,0,0,0,0,0,0,0,0,0,0,0,0,20,
scooby_state_43f2d5|28|2 19,0,0,0,0,0,0,0,0,0,0,0,0,0,0,19,
scooby_state_43f2d5|25|2 19,0,0,0,0,0,0,0,0,0,0,0,0,0,0,19,
scooby_state_43f2d5|38|2 19,0,0,0,0,0,0,0,0,0,0,0,0,0,0,19,
scooby_state_43f2d5|22|2 19,0,0,0,0,0,0,0,0,0,0,0,0,0,0,19,
scooby_state_43f2d5|27|2 19,0,0,0,0,0,0,0,0,0,0,0,0,0,0,19,
scooby_state_43f2d5|33|2 19,0,0,0,0,0,0,0,0,0,0,0,0,0,0,19,
scooby_state_43f5c5|49|-7 18,0,0,0,0,0,0,0,0,0,0,0,0,0,0,18,
scooby_state_43f2d5|20|2 18,0,0,0,0,0,0,0,0,0,0,0,0,0,0,18,
scooby_state_43f2d5|30|2 18,0,0,0,0,0,0,0,0,0,0,0,0,0,0,18,
scooby_state_43f2d5|48|2 18,0,0,0,0,0,0,0,0,0,0,0,0,0,0,18,
scooby_state_43f2d5|26|2 18,0,0,0,0,0,0,0,0,0,0,0,0,0,0,18,
scooby_state_43f2d5|23|2 17,0,0,0,0,0,0,0,0,0,0,0,0,0,0,17,
scooby_state_43f2d5|17|2 17,0,0,0,0,0,0,0,0,0,0,0,0,0,0,17,
scooby_state_43f58c|57|-2 1,1,1,1,1,1,1,1,1,1,1,5,0,0,0,16,
scooby_state_43f2d5|51|-1 16,0,0,0,0,0,0,0,0,0,0,0,0,0,0,16,
scooby_state_43f2d5|45|-1 15,0,0,0,0,0,0,0,0,0,0,0,0,0,0,15,
scooby_state_43f2d5|18|2 15,0,0,0,0,0,0,0,0,0,0,0,0,0,0,15,
scooby_state_43f2d5|48|-1 15,0,0,0,0,0,0,0,0,0,0,0,0,0,0,15,
scooby_state_43f2d5|39|-1 15,0,0,0,0,0,0,0,0,0,0,0,0,0,0,15,
scooby_state_43f2d5|8|2 15,0,0,0,0,0,0,0,0,0,0,0,0,0,0,15,
scooby_state_43f2d5|41|-1 15,0,0,0,0,0,0,0,0,0,0,0,0,0,0,15,
scooby_state_43f2d5|14|2 15,0,0,0,0,0,0,0,0,0,0,0,0,0,0,15,
scooby_state_43f2d5|16|2 13,0,0,0,0,0,0,0,0,0,0,0,0,0,1,14,
scooby_state_43f2d5|32|2 14,0,0,0,0,0,0,0,0,0,0,0,0,0,0,14,
scooby_state_43f2d5|31|2 14,0,0,0,0,0,0,0,0,0,0,0,0,0,0,14,
scooby_state_43f2d5|20|-1 14,0,0,0,0,0,0,0,0,0,0,0,0,0,0,14,
scooby_state_43f5b2|59|2 0,0,0,0,0,0,0,0,0,0,0,0,14,0,0,14,
scooby_state_43f58c|57|-1 14,0,0,0,0,0,0,0,0,0,0,0,0,0,0,14,
scooby_state_43f2d5|13|2 14,0,0,0,0,0,0,0,0,0,0,0,0,0,0,14,
scooby_state_43f2d5|49|-1 14,0,0,0,0,0,0,0,0,0,0,0,0,0,0,14,
scooby_state_43f2d5|33|-1 13,0,0,0,0,0,0,0,0,0,0,0,0,0,0,13,
scooby_state_43f2d5|1|0 13,0,0,0,0,0,0,0,0,0,0,0,0,0,0,13,
scooby_state_43f2d5|35|-1 13,0,0,0,0,0,0,0,0,0,0,0,0,0,0,13,
scooby_state_43f2d5|22|-1 12,0,0,0,0,0,0,0,0,0,0,0,0,0,0,12,
scooby_state_43f2d5|52|-1 12,0,0,0,0,0,0,0,0,0,0,0,0,0,0,12,
scooby_state_43f2d5|43|-1 12,0,0,0,0,0,0,0,0,0,0,0,0,0,0,12,
scooby_state_43f2d5|59|0 12,0,0,0,0,0,0,0,0,0,0,0,0,0,0,12,
scooby_state_43f2d5|47|0 12,0,0,0,0,0,0,0,0,0,0,0,0,0,0,12,
scooby_state_43f2d5|9|2 12,0,0,0,0,0,0,0,0,0,0,0,0,0,0,12,
scooby_state_43f2d5|28|-1 12,0,0,0,0,0,0,0,0,0,0,0,0,0,0,12,
scooby_state_43f2d5|18|-1 12,0,0,0,0,0,0,0,0,0,0,0,0,0,0,12,
scooby_state_43f2d5|47|-1 12,0,0,0,0,0,0,0,0,0,0,0,0,0,0,12,
scooby_state_43f5ed|51|2 12,0,0,0,0,0,0,0,0,0,0,0,0,0,0,12,
scooby_state_43f2d5|32|-1 12,0,0,0,0,0,0,0,0,0,0,0,0,0,0,12,
scooby_state_43f2d5|7|2 11,0,0,0,0,0,0,0,0,0,0,0,0,0,0,11,
scooby_state_43f2d5|42|-1 11,0,0,0,0,0,0,0,0,0,0,0,0,0,0,11,
scooby_state_43f2d5|36|-1 11,0,0,0,0,0,0,0,0,0,0,0,0,0,0,11,
scooby_state_43f2d5|15|-1 11,0,0,0,0,0,0,0,0,0,0,0,0,0,0,11,
scooby_state_43f2d5|27|-1 11,0,0,0,0,0,0,0,0,0,0,0,0,0,0,11,
scooby_state_43f2d5|44|-1 11,0,0,0,0,0,0,0,0,0,0,0,0,0,0,11,
scooby_state_43f2d5|50|-1 11,0,0,0,0,0,0,0,0,0,0,0,0,0,0,11,
scooby_state_43f2d5|25|-1 10,0,0,0,0,0,0,0,0,0,0,0,0,0,0,10,
scooby_state_43f2d5|7|-1 10,0,0,0,0,0,0,0,0,0,0,0,0,0,0,10,
scooby_state_43f2d5|10|0 10,0,0,0,0,0,0,0,0,0,0,0,0,0,0,10,
scooby_state_43f2d5|20|0 10,0,0,0,0,0,0,0,0,0,0,0,0,0,0,10,
scooby_state_43f2d5|15|2 10,0,0,0,0,0,0,0,0,0,0,0,0,0,0,10,
scooby_state_43f2d5|6|0 10,0,0,0,0,0,0,0,0,0,0,0,0,0,0,10,
scooby_state_43f2d5|60|0 10,0,0,0,0,0,0,0,0,0,0,0,0,0,0,10,
scooby_state_43f2d5|5|0 10,0,0,0,0,0,0,0,0,0,0,0,0,0,0,10,
scooby_state_43f2d5|44|0 10,0,0,0,0,0,0,0,0,0,0,0,0,0,0,10,
scooby_state_43f2d5|24|0 10,0,0,0,0,0,0,0,0,0,0,0,0,0,0,10,
scooby_state_43f2d5|35|0 10,0,0,0,0,0,0,0,0,0,0,0,0,0,0,10,
scooby_state_43f2d5|23|-1 10,0,0,0,0,0,0,0,0,0,0,0,0,0,0,10,
scooby_state_43f2d5|40|-1 10,0,0,0,0,0,0,0,0,0,0,0,0,0,0,10,
scooby_state_43f2d5|37|-1 10,0,0,0,0,0,0,0,0,0,0,0,0,0,0,10,
scooby_state_43f2d5|53|0 10,0,0,0,0,0,0,0,0,0,0,0,0,0,0,10,
scooby_state_43f2d5|54|0 10,0,0,0,0,0,0,0,0,0,0,0,0,0,0,10,
scooby_state_43f2d5|38|-1 10,0,0,0,0,0,0,0,0,0,0,0,0,0,0,10,
scooby_state_43f2d5|34|-1 10,0,0,0,0,0,0,0,0,0,0,0,0,0,0,10,
scooby_state_43f2d5|12|2 9,0,0,0,0,0,0,0,0,0,0,0,0,0,0,9,
scooby_state_43f2d5|41|0 9,0,0,0,0,0,0,0,0,0,0,0,0,0,0,9,
scooby_state_43f2d5|30|0 9,0,0,0,0,0,0,0,0,0,0,0,0,0,0,9,
scooby_state_43f2d5|8|0 9,0,0,0,0,0,0,0,0,0,0,0,0,0,0,9,
scooby_state_43f2d5|40|0 9,0,0,0,0,0,0,0,0,0,0,0,0,0,0,9,
scooby_state_43f2d5|15|0 9,0,0,0,0,0,0,0,0,0,0,0,0,0,0,9,
scooby_state_43f2d5|2|0 9,0,0,0,0,0,0,0,0,0,0,0,0,0,0,9,
scooby_state_43f2d5|50|0 9,0,0,0,0,0,0,0,0,0,0,0,0,0,0,9,
scooby_state_43f2d5|17|-1 9,0,0,0,0,0,0,0,0,0,0,0,0,0,0,9,
scooby_state_43f2d5|63|0 9,0,0,0,0,0,0,0,0,0,0,0,0,0,0,9,
scooby_state_43f2d5|26|0 9,0,0,0,0,0,0,0,0,0,0,0,0,0,0,9,
scooby_state_43f2d5|26|-1 9,0,0,0,0,0,0,0,0,0,0,0,0,0,0,9,
scooby_state_43f52f|24|0 8,0,0,0,0,0,0,0,0,0,0,0,0,0,0,8,
scooby_state_43f2d5|19|-1 8,0,0,0,0,0,0,0,0,0,0,0,0,0,0,8,
scooby_state_43f52f|28|0 8,0,0,0,0,0,0,0,0,0,0,0,0,0,0,8,
scooby_state_43f2d0|43|0 8,0,0,0,0,0,0,0,0,0,0,0,0,0,0,8,
scooby_state_43f2d5|6|-1 8,0,0,0,0,0,0,0,0,0,0,0,0,0,0,8,
scooby_state_43f509|11|0 8,0,0,0,0,0,0,0,0,0,0,0,0,0,0,8,
scooby_state_43f510|25|0 8,0,0,0,0,0,0,0,0,0,0,0,0,0,0,8,
scooby_state_4453e0|34|0 8,0,0,0,0,0,0,0,0,0,0,0,0,0,0,8,
scooby_state_43f510|59|0 8,0,0,0,0,0,0,0,0,0,0,0,0,0,0,8,
scooby_state_43f2d0|50|0 8,0,0,0,0,0,0,0,0,0,0,0,0,0,0,8,
scooby_state_43f52f|27|0 8,0,0,0,0,0,0,0,0,0,0,0,0,0,0,8,
scooby_state_43f510|61|0 8,0,0,0,0,0,0,0,0,0,0,0,0,0,0,8,
scooby_state_43f52f|21|0 8,0,0,0,0,0,0,0,0,0,0,0,0,0,0,8,
scooby_state_4453e0|28|0 8,0,0,0,0,0,0,0,0,0,0,0,0,0,0,8,
scooby_state_43f52f|50|0 8,0,0,0,0,0,0,0,0,0,0,0,0,0,0,8,
scooby_state_43f2d0|48|0 8,0,0,0,0,0,0,0,0,0,0,0,0,0,0,8,
scooby_state_43f510|24|0 8,0,0,0,0,0,0,0,0,0,0,0,0,0,0,8,
scooby_state_43f509|56|0 8,0,0,0,0,0,0,0,0,0,0,0,0,0,0,8,
scooby_state_43f52f|26|0 8,0,0,0,0,0,0,0,0,0,0,0,0,0,0,8,
scooby_state_43f52f|48|0 8,0,0,0,0,0,0,0,0,0,0,0,0,0,0,8,
scooby_state_4453e0|29|0 8,0,0,0,0,0,0,0,0,0,0,0,0,0,0,8,
scooby_state_43f52f|25|0 8,0,0,0,0,0,0,0,0,0,0,0,0,0,0,8,
scooby_state_43f509|23|0 8,0,0,0,0,0,0,0,0,0,0,0,0,0,0,8,
scooby_state_43f509|20|0 8,0,0,0,0,0,0,0,0,0,0,0,0,0,0,8,
scooby_state_43f2d0|7|0 8,0,0,0,0,0,0,0,0,0,0,0,0,0,0,8,
scooby_state_43f2d5|12|0 8,0,0,0,0,0,0,0,0,0,0,0,0,0,0,8,
scooby_state_43f510|40|0 8,0,0,0,0,0,0,0,0,0,0,0,0,0,0,8,
scooby_state_43f509|19|0 8,0,0,0,0,0,0,0,0,0,0,0,0,0,0,8,
scooby_state_43f2d5|11|0 8,0,0,0,0,0,0,0,0,0,0,0,0,0,0,8,
scooby_state_43f2d0|19|0 8,0,0,0,0,0,0,0,0,0,0,0,0,0,0,8,
scooby_state_43f2d0|49|0 8,0,0,0,0,0,0,0,0,0,0,0,0,0,0,8,
scooby_state_43f2d0|17|0 8,0,0,0,0,0,0,0,0,0,0,0,0,0,0,8,
scooby_state_43f2d0|16|0 8,0,0,0,0,0,0,0,0,0,0,0,0,0,0,8,
scooby_state_43f52f|59|0 8,0,0,0,0,0,0,0,0,0,0,0,0,0,0,8,
scooby_state_43f2d0|14|0 8,0,0,0,0,0,0,0,0,0,0,0,0,0,0,8,
scooby_state_43f2d5|3|0 8,0,0,0,0,0,0,0,0,0,0,0,0,0,0,8,
scooby_state_43f510|12|0 8,0,0,0,0,0,0,0,0,0,0,0,0,0,0,8,
scooby_state_43f2d0|11|0 8,0,0,0,0,0,0,0,0,0,0,0,0,0,0,8,
scooby_state_43f2d0|10|0 8,0,0,0,0,0,0,0,0,0,0,0,0,0,0,8,
scooby_state_43f2d0|9|0 8,0,0,0,0,0,0,0,0,0,0,0,0,0,0,8,
scooby_state_43f2d0|22|0 8,0,0,0,0,0,0,0,0,0,0,0,0,0,0,8,
scooby_state_43f2d5|61|0 8,0,0,0,0,0,0,0,0,0,0,0,0,0,0,8,
scooby_state_43f510|13|0 8,0,0,0,0,0,0,0,0,0,0,0,0,0,0,8,
scooby_state_43f2d0|4|0 8,0,0,0,0,0,0,0,0,0,0,0,0,0,0,8,
scooby_state_43f52f|15|0 8,0,0,0,0,0,0,0,0,0,0,0,0,0,0,8,
scooby_state_43f52f|2|0 8,0,0,0,0,0,0,0,0,0,0,0,0,0,0,8,
scooby_state_43f509|14|0 8,0,0,0,0,0,0,0,0,0,0,0,0,0,0,8,
scooby_state_43f2d5|11|2 8,0,0,0,0,0,0,0,0,0,0,0,0,0,0,8,
scooby_state_43f2d0|3|0 8,0,0,0,0,0,0,0,0,0,0,0,0,0,0,8,
scooby_state_43f52f|5|0 8,0,0,0,0,0,0,0,0,0,0,0,0,0,0,8,
scooby_state_43f2d0|2|0 8,0,0,0,0,0,0,0,0,0,0,0,0,0,0,8,
scooby_state_43f510|55|0 8,0,0,0,0,0,0,0,0,0,0,0,0,0,0,8,
scooby_state_43f509|34|0 8,0,0,0,0,0,0,0,0,0,0,0,0,0,0,8,
scooby_state_43f2d0|1|0 8,0,0,0,0,0,0,0,0,0,0,0,0,0,0,8,
scooby_state_43f509|55|0 8,0,0,0,0,0,0,0,0,0,0,0,0,0,0,8,
scooby_state_43f509|2|0 8,0,0,0,0,0,0,0,0,0,0,0,0,0,0,8,
scooby_state_43f510|54|0 8,0,0,0,0,0,0,0,0,0,0,0,0,0,0,8,
scooby_state_43f52f|11|0 8,0,0,0,0,0,0,0,0,0,0,0,0,0,0,8,
scooby_state_43f52f|34|0 7,0,0,0,0,0,0,0,0,0,0,0,0,0,1,8,
scooby_state_43f510|8|0 8,0,0,0,0,0,0,0,0,0,0,0,0,0,0,8,
scooby_state_43f52f|9|0 8,0,0,0,0,0,0,0,0,0,0,0,0,0,0,8,
scooby_state_43f509|6|0 8,0,0,0,0,0,0,0,0,0,0,0,0,0,0,8,
scooby_state_43f52f|8|0 8,0,0,0,0,0,0,0,0,0,0,0,0,0,0,8,
scooby_state_43f510|5|0 8,0,0,0,0,0,0,0,0,0,0,0,0,0,0,8,
scooby_state_43f52f|6|0 8,0,0,0,0,0,0,0,0,0,0,0,0,0,0,8,
scooby_state_43f510|11|0 8,0,0,0,0,0,0,0,0,0,0,0,0,0,0,8,
scooby_state_43f52f|45|0 8,0,0,0,0,0,0,0,0,0,0,0,0,0,0,8,
scooby_state_43f52f|4|0 8,0,0,0,0,0,0,0,0,0,0,0,0,0,0,8,
scooby_state_43f509|9|0 8,0,0,0,0,0,0,0,0,0,0,0,0,0,0,8,
scooby_state_43f510|2|0 8,0,0,0,0,0,0,0,0,0,0,0,0,0,0,8,
scooby_state_43f52f|30|0 8,0,0,0,0,0,0,0,0,0,0,0,0,0,0,8,
scooby_state_43f509|36|0 8,0,0,0,0,0,0,0,0,0,0,0,0,0,0,8,
scooby_state_43f510|42|0 8,0,0,0,0,0,0,0,0,0,0,0,0,0,0,8,
scooby_state_43f2d0|63|0 8,0,0,0,0,0,0,0,0,0,0,0,0,0,0,8,
scooby_state_43f52f|57|0 8,0,0,0,0,0,0,0,0,0,0,0,0,0,0,8,
scooby_state_43f509|12|0 8,0,0,0,0,0,0,0,0,0,0,0,0,0,0,8,
scooby_state_43f52f|58|0 8,0,0,0,0,0,0,0,0,0,0,0,0,0,0,8,
scooby_state_43f510|38|0 8,0,0,0,0,0,0,0,0,0,0,0,0,0,0,8,
scooby_state_43f510|33|0 8,0,0,0,0,0,0,0,0,0,0,0,0,0,0,8,
scooby_state_43f2d5|17|0 8,0,0,0,0,0,0,0,0,0,0,0,0,0,0,8,
scooby_state_43f2d0|26|0 8,0,0,0,0,0,0,0,0,0,0,0,0,0,0,8,
scooby_state_43f2d5|16|0 8,0,0,0,0,0,0,0,0,0,0,0,0,0,0,8,
scooby_state_43f2d0|25|0 8,0,0,0,0,0,0,0,0,0,0,0,0,0,0,8,
scooby_state_43f2d5|53|-1 8,0,0,0,0,0,0,0,0,0,0,0,0,0,0,8,
scooby_state_43f2d0|24|0 8,0,0,0,0,0,0,0,0,0,0,0,0,0,0,8,
scooby_state_43f2d0|34|0 8,0,0,0,0,0,0,0,0,0,0,0,0,0,0,8,
scooby_state_43f2d0|42|0 8,0,0,0,0,0,0,0,0,0,0,0,0,0,0,8,
scooby_state_43f2d0|41|0 8,0,0,0,0,0,0,0,0,0,0,0,0,0,0,8,
scooby_state_43f509|16|0 8,0,0,0,0,0,0,0,0,0,0,0,0,0,0,8,
scooby_state_43f2d0|38|0 8,0,0,0,0,0,0,0,0,0,0,0,0,0,0,8,
scooby_state_43f2d5|28|0 8,0,0,0,0,0,0,0,0,0,0,0,0,0,0,8,
scooby_state_43f52f|3|0 8,0,0,0,0,0,0,0,0,0,0,0,0,0,0,8,
scooby_state_43f2d0|37|0 8,0,0,0,0,0,0,0,0,0,0,0,0,0,0,8,
scooby_state_43f2d5|46|-1 8,0,0,0,0,0,0,0,0,0,0,0,0,0,0,8,
scooby_state_43f509|7|0 8,0,0,0,0,0,0,0,0,0,0,0,0,0,0,8,
scooby_state_43f52f|46|0 8,0,0,0,0,0,0,0,0,0,0,0,0,0,0,8,
scooby_state_43f2d0|45|0 8,0,0,0,0,0,0,0,0,0,0,0,0,0,0,8,
scooby_state_43f509|8|0 8,0,0,0,0,0,0,0,0,0,0,0,0,0,0,8,
scooby_state_43f52f|19|0 8,0,0,0,0,0,0,0,0,0,0,0,0,0,0,8,
scooby_state_43f52f|20|0 8,0,0,0,0,0,0,0,0,0,0,0,0,0,0,8,
scooby_state_43f52f|17|0 8,0,0,0,0,0,0,0,0,0,0,0,0,0,0,8,
scooby_state_43f2d0|33|0 8,0,0,0,0,0,0,0,0,0,0,0,0,0,0,8,
scooby_state_43f2d5|23|0 8,0,0,0,0,0,0,0,0,0,0,0,0,0,0,8,
scooby_state_43f2d0|32|0 8,0,0,0,0,0,0,0,0,0,0,0,0,0,0,8,
scooby_state_43f509|18|0 8,0,0,0,0,0,0,0,0,0,0,0,0,0,0,8,
scooby_state_43f52f|13|0 8,0,0,0,0,0,0,0,0,0,0,0,0,0,0,8,
scooby_state_43f509|28|0 8,0,0,0,0,0,0,0,0,0,0,0,0,0,0,8,
scooby_state_43f510|58|0 8,0,0,0,0,0,0,0,0,0,0,0,0,0,0,8,
scooby_state_43f2d0|31|0 8,0,0,0,0,0,0,0,0,0,0,0,0,0,0,8,
scooby_state_43f2d0|30|0 8,0,0,0,0,0,0,0,0,0,0,0,0,0,0,8,
scooby_state_43f2d0|29|0 8,0,0,0,0,0,0,0,0,0,0,0,0,0,0,8,
scooby_state_43f510|18|0 8,0,0,0,0,0,0,0,0,0,0,0,0,0,0,8,
scooby_state_43f510|47|0 8,0,0,0,0,0,0,0,0,0,0,0,0,0,0,8,
scooby_state_43f2d0|53|0 8,0,0,0,0,0,0,0,0,0,0,0,0,0,0,8,
scooby_state_4453e0|33|0 8,0,0,0,0,0,0,0,0,0,0,0,0,0,0,8,
scooby_state_43f2d5|24|-1 8,0,0,0,0,0,0,0,0,0,0,0,0,0,0,8,
scooby_state_43f2d0|62|0 8,0,0,0,0,0,0,0,0,0,0,0,0,0,0,8,
scooby_state_43f2d5|52|0 8,0,0,0,0,0,0,0,0,0,0,0,0,0,0,8,
scooby_state_43f2d0|61|0 8,0,0,0,0,0,0,0,0,0,0,0,0,0,0,8,
scooby_state_43f2d0|60|0 8,0,0,0,0,0,0,0,0,0,0,0,0,0,0,8,
scooby_state_43f510|10|0 8,0,0,0,0,0,0,0,0,0,0,0,0,0,0,8,
scooby_state_43f2d0|58|0 8,0,0,0,0,0,0,0,0,0,0,0,0,0,0,8,
scooby_state_43f2d0|57|0 8,0,0,0,0,0,0,0,0,0,0,0,0,0,0,8,
scooby_state_43f510|14|0 8,0,0,0,0,0,0,0,0,0,0,0,0,0,0,8,
scooby_state_43f510|60|0 8,0,0,0,0,0,0,0,0,0,0,0,0,0,0,8,
scooby_state_43f509|5|0 8,0,0,0,0,0,0,0,0,0,0,0,0,0,0,8,
scooby_state_43f2d0|56|0 8,0,0,0,0,0,0,0,0,0,0,0,0,0,0,8,
scooby_state_43f510|9|0 8,0,0,0,0,0,0,0,0,0,0,0,0,0,0,8,
scooby_state_43f2d5|48|0 8,0,0,0,0,0,0,0,0,0,0,0,0,0,0,8,
scooby_state_43f2d0|55|0 8,0,0,0,0,0,0,0,0,0,0,0,0,0,0,8,
scooby_state_43f510|19|0 8,0,0,0,0,0,0,0,0,0,0,0,0,0,0,8,
scooby_state_43f2d5|29|0 8,0,0,0,0,0,0,0,0,0,0,0,0,0,0,8,
scooby_state_43f52f|16|0 8,0,0,0,0,0,0,0,0,0,0,0,0,0,0,8,
scooby_state_43f510|6|0 8,0,0,0,0,0,0,0,0,0,0,0,0,0,0,8,
scooby_state_43f2d0|52|0 8,0,0,0,0,0,0,0,0,0,0,0,0,0,0,8,
scooby_state_43f509|42|0 8,0,0,0,0,0,0,0,0,0,0,0,0,0,0,8,
scooby_state_43f2d0|5|0 8,0,0,0,0,0,0,0,0,0,0,0,0,0,0,8,
scooby_state_43f2d0|51|0 8,0,0,0,0,0,0,0,0,0,0,0,0,0,0,8,
scooby_state_43f2d5|21|0 8,0,0,0,0,0,0,0,0,0,0,0,0,0,0,8,
scooby_state_43f52f|12|0 8,0,0,0,0,0,0,0,0,0,0,0,0,0,0,8,
scooby_state_43f2d5|37|0 8,0,0,0,0,0,0,0,0,0,0,0,0,0,0,8,
scooby_state_43f2d5|38|0 8,0,0,0,0,0,0,0,0,0,0,0,0,0,0,8,
scooby_state_43f2d0|46|0 8,0,0,0,0,0,0,0,0,0,0,0,0,0,0,8,
scooby_state_4453e0|47|0 8,0,0,0,0,0,0,0,0,0,0,0,0,0,0,8,
scooby_state_43f2d0|44|0 8,0,0,0,0,0,0,0,0,0,0,0,0,0,0,8,
scooby_state_43f509|41|0 8,0,0,0,0,0,0,0,0,0,0,0,0,0,0,8,
scooby_state_43f510|53|0 8,0,0,0,0,0,0,0,0,0,0,0,0,0,0,8,
scooby_state_43f52f|51|0 8,0,0,0,0,0,0,0,0,0,0,0,0,0,0,8,
scooby_state_43f52f|55|0 8,0,0,0,0,0,0,0,0,0,0,0,0,0,0,8,
scooby_state_43f510|22|0 8,0,0,0,0,0,0,0,0,0,0,0,0,0,0,8,
scooby_state_43f510|26|0 8,0,0,0,0,0,0,0,0,0,0,0,0,0,0,8,
scooby_state_43f509|58|0 8,0,0,0,0,0,0,0,0,0,0,0,0,0,0,8,
scooby_state_43f52f|43|0 8,0,0,0,0,0,0,0,0,0,0,0,0,0,0,8,
scooby_state_43f52f|60|0 8,0,0,0,0,0,0,0,0,0,0,0,0,0,0,8,
scooby_state_43f509|22|0 8,0,0,0,0,0,0,0,0,0,0,0,0,0,0,8,
scooby_state_43f52f|61|0 8,0,0,0,0,0,0,0,0,0,0,0,0,0,0,8,
scooby_state_43f52f|62|0 8,0,0,0,0,0,0,0,0,0,0,0,0,0,0,8,
scooby_state_43f509|53|0 8,0,0,0,0,0,0,0,0,0,0,0,0,0,0,8,
scooby_state_43f509|60|0 8,0,0,0,0,0,0,0,0,0,0,0,0,0,0,8,
scooby_state_43f509|61|0 8,0,0,0,0,0,0,0,0,0,0,0,0,0,0,8,
scooby_state_43f2d0|40|0 8,0,0,0,0,0,0,0,0,0,0,0,0,0,0,8,
scooby_state_43f509|26|0 8,0,0,0,0,0,0,0,0,0,0,0,0,0,0,8,
scooby_state_43f509|62|0 8,0,0,0,0,0,0,0,0,0,0,0,0,0,0,8,
scooby_state_43f510|63|0 8,0,0,0,0,0,0,0,0,0,0,0,0,0,0,8,
scooby_state_4453e0|37|0 8,0,0,0,0,0,0,0,0,0,0,0,0,0,0,8,
scooby_state_43f52f|31|0 8,0,0,0,0,0,0,0,0,0,0,0,0,0,0,8,
scooby_state_43f52f|10|0 8,0,0,0,0,0,0,0,0,0,0,0,0,0,0,8,
scooby_state_43f510|56|0 8,0,0,0,0,0,0,0,0,0,0,0,0,0,0,8,
scooby_state_43f2d0|21|0 8,0,0,0,0,0,0,0,0,0,0,0,0,0,0,8,
scooby_state_43f509|59|0 8,0,0,0,0,0,0,0,0,0,0,0,0,0,0,8,
[...]
scooby_state_43f3ff|32|-24 1,0,0,0,0,0,0,0,0,0,0,0,0,0,0,1,
scooby_state_445494|51|1 1,0,0,0,0,0,0,0,0,0,0,0,0,0,0,1,
scooby_state_44546a|56|1 1,0,0,0,0,0,0,0,0,0,0,0,0,0,0,1,
scooby_state_535544|21|1 1,0,0,0,0,0,0,0,0,0,0,0,0,0,0,1,
scooby_state_44544f|43|1 1,0,0,0,0,0,0,0,0,0,0,0,0,0,0,1,
scooby_state_43f4e2|11|0 1,0,0,0,0,0,0,0,0,0,0,0,0,0,0,1,
scooby_state_44544f|52|1 1,0,0,0,0,0,0,0,0,0,0,0,0,0,0,1,
scooby_state_5355a2|43|0 1,0,0,0,0,0,0,0,0,0,0,0,0,0,0,1,
scooby_state_44544f|41|1 1,0,0,0,0,0,0,0,0,0,0,0,0,0,0,1,
scooby_state_535584|27|0 1,0,0,0,0,0,0,0,0,0,0,0,0,0,0,1,
scooby_state_445494|48|1 1,0,0,0,0,0,0,0,0,0,0,0,0,0,0,1,
scooby_state_445494|53|1 1,0,0,0,0,0,0,0,0,0,0,0,0,0,0,1,
scooby_state_43f4d4|49|0 0,1,0,0,0,0,0,0,0,0,0,0,0,0,0,1,
scooby_state_445542|21|0 1,0,0,0,0,0,0,0,0,0,0,0,0,0,0,1,
scooby_state_43f581|22|1 1,0,0,0,0,0,0,0,0,0,0,0,0,0,0,1,
scooby_state_44546a|47|1 1,0,0,0,0,0,0,0,0,0,0,0,0,0,0,1,
scooby_state_43f407|16|1 1,0,0,0,0,0,0,0,0,0,0,0,0,0,0,1,
scooby_state_43f3c1|15|1 1,0,0,0,0,0,0,0,0,0,0,0,0,0,0,1,
scooby_state_43f395|14|0 1,0,0,0,0,0,0,0,0,0,0,0,0,0,0,1,
scooby_state_445494|63|1 1,0,0,0,0,0,0,0,0,0,0,0,0,0,0,1,
scooby_state_560400|16|1 1,0,0,0,0,0,0,0,0,0,0,0,0,0,0,1,
scooby_state_44546a|45|1 1,0,0,0,0,0,0,0,0,0,0,0,0,0,0,1,
scooby_state_44546a|59|1 1,0,0,0,0,0,0,0,0,0,0,0,0,0,0,1,
scooby_state_55fb42|45|-14 1,0,0,0,0,0,0,0,0,0,0,0,0,0,0,1,
scooby_state_445486|21|0 1,0,0,0,0,0,0,0,0,0,0,0,0,0,0,1,
scooby_state_4003f0|15|0 1,0,0,0,0,0,0,0,0,0,0,0,0,0,0,1,
scooby_state_4451c2|7|1 1,0,0,0,0,0,0,0,0,0,0,0,0,0,0,1,
scooby_state_43f4e2|39|2 1,0,0,0,0,0,0,0,0,0,0,0,0,0,0,1,
scooby_state_445494|0|-63 1,0,0,0,0,0,0,0,0,0,0,0,0,0,0,1,
scooby_state_43f2d5|25|3 1,0,0,0,0,0,0,0,0,0,0,0,0,0,0,1,
scooby_state_445494|42|1 1,0,0,0,0,0,0,0,0,0,0,0,0,0,0,1,
scooby_state_44544f|48|1 1,0,0,0,0,0,0,0,0,0,0,0,0,0,0,1,
scooby_state_43f2d5|37|3 1,0,0,0,0,0,0,0,0,0,0,0,0,0,0,1,
scooby_state_44544f|58|1 1,0,0,0,0,0,0,0,0,0,0,0,0,0,0,1,
scooby_state_535584|11|0 1,0,0,0,0,0,0,0,0,0,0,0,0,0,0,1,
scooby_state_44544f|7|1 1,0,0,0,0,0,0,0,0,0,0,0,0,0,0,1,
scooby_state_55f9e0|39|3 1,0,0,0,0,0,0,0,0,0,0,0,0,0,0,1,
scooby_state_445494|4|1 1,0,0,0,0,0,0,0,0,0,0,0,0,0,0,1,
scooby_state_55fec9|59|17 1,0,0,0,0,0,0,0,0,0,0,0,0,0,0,1,
scooby_state_43f541|21|1 1,0,0,0,0,0,0,0,0,0,0,0,0,0,0,1,
scooby_state_44544f|46|1 1,0,0,0,0,0,0,0,0,0,0,0,0,0,0,1,
scooby_state_43f2d5|3|3 1,0,0,0,0,0,0,0,0,0,0,0,0,0,0,1,
scooby_state_535600|24|1 1,0,0,0,0,0,0,0,0,0,0,0,0,0,0,1,
scooby_state_44546a|62|1 1,0,0,0,0,0,0,0,0,0,0,0,0,0,0,1,
scooby_state_43f501|20|1 1,0,0,0,0,0,0,0,0,0,0,0,0,0,0,1,
scooby_state_445440|6|0 1,0,0,0,0,0,0,0,0,0,0,0,0,0,0,1,
scooby_state_44544f|0|-63 1,0,0,0,0,0,0,0,0,0,0,0,0,0,0,1,
scooby_state_445494|62|1 1,0,0,0,0,0,0,0,0,0,0,0,0,0,0,1,
scooby_state_55fa04|40|-13 1,0,0,0,0,0,0,0,0,0,0,0,0,0,0,1,
scooby_state_43f42a|41|0 1,0,0,0,0,0,0,0,0,0,0,0,0,0,0,1,
scooby_state_535480|18|0 1,0,0,0,0,0,0,0,0,0,0,0,0,0,0,1,
scooby_state_44544f|8|1 1,0,0,0,0,0,0,0,0,0,0,0,0,0,0,1,
scooby_state_44546a|49|1 1,0,0,0,0,0,0,0,0,0,0,0,0,0,0,1,
scooby_state_43f2d5|5|3 1,0,0,0,0,0,0,0,0,0,0,0,0,0,0,1,
scooby_state_55fe18|56|-4 1,0,0,0,0,0,0,0,0,0,0,0,0,0,0,1,
scooby_state_44546a|48|1 1,0,0,0,0,0,0,0,0,0,0,0,0,0,0,1,
scooby_state_43f2d5|34|-2 1,0,0,0,0,0,0,0,0,0,0,0,0,0,0,1,
scooby_state_44544f|49|1 1,0,0,0,0,0,0,0,0,0,0,0,0,0,0,1,
scooby_state_55f8b0|34|0 1,0,0,0,0,0,0,0,0,0,0,0,0,0,0,1,
scooby_state_43f341|13|0 1,0,0,0,0,0,0,0,0,0,0,0,0,0,0,1,
scooby_state_44544f|47|1 1,0,0,0,0,0,0,0,0,0,0,0,0,0,0,1,
scooby_state_44544f|59|1 1,0,0,0,0,0,0,0,0,0,0,0,0,0,0,1,
scooby_state_44544f|60|1 1,0,0,0,0,0,0,0,0,0,0,0,0,0,0,1,
scooby_state_44546a|40|0 1,0,0,0,0,0,0,0,0,0,0,0,0,0,0,1,
scooby_state_44546a|1|1 1,0,0,0,0,0,0,0,0,0,0,0,0,0,0,1,
scooby_state_43f2d5|55|3 1,0,0,0,0,0,0,0,0,0,0,0,0,0,0,1,
scooby_state_445302|12|1 1,0,0,0,0,0,0,0,0,0,0,0,0,0,0,1,
scooby_state_55f8c1|35|1 1,0,0,0,0,0,0,0,0,0,0,0,0,0,0,1,
scooby_state_43f275|33|-6 1,0,0,0,0,0,0,0,0,0,0,0,0,0,0,1,
scooby_state_43f4e2|28|2 1,0,0,0,0,0,0,0,0,0,0,0,0,0,0,1,
scooby_state_44521b|44|0 1,0,0,0,0,0,0,0,0,0,0,0,0,0,0,1,
scooby_state_445182|4|0 0,0,0,0,0,0,0,0,0,0,0,0,1,0,0,1,
scooby_state_561419|20|0 1,0,0,0,0,0,0,0,0,0,0,0,0,0,0,1,
scooby_state_508fe0|63|0 1,0,0,0,0,0,0,0,0,0,0,0,0,0,0,1,
scooby_state_44546a|42|1 1,0,0,0,0,0,0,0,0,0,0,0,0,0,0,1,
scooby_state_445494|61|1 1,0,0,0,0,0,0,0,0,0,0,0,0,0,0,1,
scooby_state_560ea8|58|2 1,0,0,0,0,0,0,0,0,0,0,0,0,0,0,1,
scooby_state_445494|59|1 1,0,0,0,0,0,0,0,0,0,0,0,0,0,0,1,
scooby_state_44544f|51|1 1,0,0,0,0,0,0,0,0,0,0,0,0,0,0,1,
scooby_state_43f2d5|63|3 1,0,0,0,0,0,0,0,0,0,0,0,0,0,0,1,
scooby_state_445494|7|1 1,0,0,0,0,0,0,0,0,0,0,0,0,0,0,1,
scooby_state_445390|14|-6 1,0,0,0,0,0,0,0,0,0,0,0,0,0,0,1,
scooby_state_55faa0|42|1 1,0,0,0,0,0,0,0,0,0,0,0,0,0,0,1,
scooby_state_43f444|40|7 1,0,0,0,0,0,0,0,0,0,0,0,0,0,0,1,
scooby_state_43f41a|39|7 1,0,0,0,0,0,0,0,0,0,0,0,0,0,0,1,
scooby_state_43f395|53|0 1,0,0,0,0,0,0,0,0,0,0,0,0,0,0,1,
scooby_state_445494|50|1 1,0,0,0,0,0,0,0,0,0,0,0,0,0,0,1,
scooby_state_43f3ae|56|1 1,0,0,0,0,0,0,0,0,0,0,0,0,0,0,1,
scooby_state_44546a|52|1 1,0,0,0,0,0,0,0,0,0,0,0,0,0,0,1,
scooby_state_44546a|7|1 1,0,0,0,0,0,0,0,0,0,0,0,0,0,0,1,
scooby_state_44546a|9|1 1,0,0,0,0,0,0,0,0,0,0,0,0,0,0,1,
scooby_state_55f9ff|59|1 1,0,0,0,0,0,0,0,0,0,0,0,0,0,0,1,
scooby_state_43f4d9|9|0 1,0,0,0,0,0,0,0,0,0,0,0,0,0,0,1,
scooby_state_44546a|61|1 1,0,0,0,0,0,0,0,0,0,0,0,0,0,0,1,
scooby_state_445494|52|1 1,0,0,0,0,0,0,0,0,0,0,0,0,0,0,1,
scooby_state_445494|58|1 1,0,0,0,0,0,0,0,0,0,0,0,0,0,0,1,
scooby_state_44544f|38|0 1,0,0,0,0,0,0,0,0,0,0,0,0,0,0,1,
scooby_state_5603f5|15|0 1,0,0,0,0,0,0,0,0,0,0,0,0,0,0,1,
scooby_state_55fd49|25|0 1,0,0,0,0,0,0,0,0,0,0,0,0,0,0,1,
scooby_state_55fd40|53|14 1,0,0,0,0,0,0,0,0,0,0,0,0,0,0,1,
scooby_state_44546a|55|1 1,0,0,0,0,0,0,0,0,0,0,0,0,0,0,1,
scooby_state_44546a|6|1 1,0,0,0,0,0,0,0,0,0,0,0,0,0,0,1,
scooby_state_445494|56|1 1,0,0,0,0,0,0,0,0,0,0,0,0,0,0,1,
scooby_state_43f2d5|21|3 1,0,0,0,0,0,0,0,0,0,0,0,0,0,0,1,
scooby_state_43f444|17|1 1,0,0,0,0,0,0,0,0,0,0,0,0,0,0,1,
scooby_state_445494|57|1 1,0,0,0,0,0,0,0,0,0,0,0,0,0,0,1,
scooby_state_560d81|54|1 1,0,0,0,0,0,0,0,0,0,0,0,0,0,0,1,
scooby_state_44544f|63|1 1,0,0,0,0,0,0,0,0,0,0,0,0,0,0,1,
scooby_state_43f565|61|1 1,0,0,0,0,0,0,0,0,0,0,0,0,0,0,1,
scooby_state_43f4e2|59|2 1,0,0,0,0,0,0,0,0,0,0,0,0,0,0,1,
scooby_state_563540|21|0 1,0,0,0,0,0,0,0,0,0,0,0,0,0,0,1,
scooby_state_43f2d5|37|-2 1,0,0,0,0,0,0,0,0,0,0,0,0,0,0,1,
scooby_state_560ec0|59|1 1,0,0,0,0,0,0,0,0,0,0,0,0,0,0,1,
scooby_state_43f2d5|13|-2 1,0,0,0,0,0,0,0,0,0,0,0,0,0,0,1,
scooby_state_445218|9|5 1,0,0,0,0,0,0,0,0,0,0,0,0,0,0,1,
scooby_state_445494|49|1 1,0,0,0,0,0,0,0,0,0,0,0,0,0,0,1,
scooby_state_562f09|60|1 1,0,0,0,0,0,0,0,0,0,0,0,0,0,0,1,
scooby_state_445494|60|1 1,0,0,0,0,0,0,0,0,0,0,0,0,0,0,1,
scooby_state_445494|6|1 1,0,0,0,0,0,0,0,0,0,0,0,0,0,0,1,
scooby_state_445494|5|1 1,0,0,0,0,0,0,0,0,0,0,0,0,0,0,1,
scooby_state_43f2d5|39|-2 1,0,0,0,0,0,0,0,0,0,0,0,0,0,0,1,
scooby_state_44544f|39|1 1,0,0,0,0,0,0,0,0,0,0,0,0,0,0,1,
scooby_state_43f250|39|-11 1,0,0,0,0,0,0,0,0,0,0,0,0,0,0,1,
scooby_state_44529b|53|-1 1,0,0,0,0,0,0,0,0,0,0,0,0,0,0,1,
scooby_state_43f2d5|25|-2 1,0,0,0,0,0,0,0,0,0,0,0,0,0,0,1,
scooby_state_44546a|51|1 1,0,0,0,0,0,0,0,0,0,0,0,0,0,0,1,
scooby_state_43f301|12|1 1,0,0,0,0,0,0,0,0,0,0,0,0,0,0,1,
scooby_state_55fa3a|28|0 1,0,0,0,0,0,0,0,0,0,0,0,0,0,0,1,
scooby_state_445494|43|1 1,0,0,0,0,0,0,0,0,0,0,0,0,0,0,1,
scooby_state_43f4c0|19|1 1,0,0,0,0,0,0,0,0,0,0,0,0,0,0,1,
scooby_state_4453c3|15|1 1,0,0,0,0,0,0,0,0,0,0,0,0,0,0,1,
scooby_state_4454f2|20|-1 1,0,0,0,0,0,0,0,0,0,0,0,0,0,0,1,
scooby_state_44544f|50|1 1,0,0,0,0,0,0,0,0,0,0,0,0,0,0,1,
scooby_state_55fefd|57|-2 0,1,0,0,0,0,0,0,0,0,0,0,0,0,0,1,
scooby_state_445494|9|1 1,0,0,0,0,0,0,0,0,0,0,0,0,0,0,1,
scooby_state_43f43a|54|15 1,0,0,0,0,0,0,0,0,0,0,0,0,0,0,1,
scooby_state_43f603|24|0 1,0,0,0,0,0,0,0,0,0,0,0,0,0,0,1,
scooby_state_445486|18|1 1,0,0,0,0,0,0,0,0,0,0,0,0,0,0,1,
scooby_state_5612f0|59|-1 0,1,0,0,0,0,0,0,0,0,0,0,0,0,0,1,
scooby_state_43f2d5|39|3 1,0,0,0,0,0,0,0,0,0,0,0,0,0,0,1,
scooby_state_43f2d5|48|3 1,0,0,0,0,0,0,0,0,0,0,0,0,0,0,1,
scooby_state_43f576|58|-3 1,0,0,0,0,0,0,0,0,0,0,0,0,0,0,1,
scooby_state_43f5c5|23|1 1,0,0,0,0,0,0,0,0,0,0,0,0,0,0,1,
scooby_state_43f2d5|18|-2 1,0,0,0,0,0,0,0,0,0,0,0,0,0,0,1,
scooby_state_43f6cd|50|-5 1,0,0,0,0,0,0,0,0,0,0,0,0,0,0,1,
scooby_state_5612f0|11|1 1,0,0,0,0,0,0,0,0,0,0,0,0,0,0,1,
scooby_state_43f2d5|0|-2 1,0,0,0,0,0,0,0,0,0,0,0,0,0,0,1,
scooby_state_43f2d5|36|-2 1,0,0,0,0,0,0,0,0,0,0,0,0,0,0,1,
scooby_state_44544f|61|1 1,0,0,0,0,0,0,0,0,0,0,0,0,0,0,1,
scooby_state_43f2d5|23|3 1,0,0,0,0,0,0,0,0,0,0,0,0,0,0,1,
scooby_state_445494|47|1 1,0,0,0,0,0,0,0,0,0,0,0,0,0,0,1,
scooby_state_44544f|2|1 1,0,0,0,0,0,0,0,0,0,0,0,0,0,0,1,
scooby_state_560fc2|63|1 1,0,0,0,0,0,0,0,0,0,0,0,0,0,0,1,
scooby_state_55fe46|57|1 1,0,0,0,0,0,0,0,0,0,0,0,0,0,0,1,
scooby_state_43f32c|63|26 1,0,0,0,0,0,0,0,0,0,0,0,0,0,0,1,
scooby_state_43f2d5|47|3 1,0,0,0,0,0,0,0,0,0,0,0,0,0,0,1,
scooby_state_43f2d5|44|-2 1,0,0,0,0,0,0,0,0,0,0,0,0,0,0,1,
scooby_state_445494|41|1 1,0,0,0,0,0,0,0,0,0,0,0,0,0,0,1,
scooby_state_55fa42|41|1 1,0,0,0,0,0,0,0,0,0,0,0,0,0,0,1,
scooby_state_445440|25|0 1,0,0,0,0,0,0,0,0,0,0,0,0,0,0,1,
scooby_state_445494|8|1 1,0,0,0,0,0,0,0,0,0,0,0,0,0,0,1,
scooby_state_44523f|45|1 1,0,0,0,0,0,0,0,0,0,0,0,0,0,0,1,
scooby_state_43f2d5|2|-2 1,0,0,0,0,0,0,0,0,0,0,0,0,0,0,1,
scooby_state_43f2a2|10|0 1,0,0,0,0,0,0,0,0,0,0,0,0,0,0,1,
scooby_state_445150|5|0 1,0,0,0,0,0,0,0,0,0,0,0,0,0,0,1,
scooby_state_43f2d5|28|3 1,0,0,0,0,0,0,0,0,0,0,0,0,0,0,1,
scooby_state_44546a|2|1 1,0,0,0,0,0,0,0,0,0,0,0,0,0,0,1,
scooby_state_43f4e7|60|6 1,0,0,0,0,0,0,0,0,0,0,0,0,0,0,1,
scooby_state_44544f|57|1 1,0,0,0,0,0,0,0,0,0,0,0,0,0,0,1,
scooby_state_445494|1|1 1,0,0,0,0,0,0,0,0,0,0,0,0,0,0,1,
scooby_state_445494|54|1 1,0,0,0,0,0,0,0,0,0,0,0,0,0,0,1,
scooby_state_4454c3|19|1 1,0,0,0,0,0,0,0,0,0,0,0,0,0,0,1,
scooby_state_55ff04|60|15 1,0,0,0,0,0,0,0,0,0,0,0,0,0,0,1,
scooby_state_562ec0|59|0 1,0,0,0,0,0,0,0,0,0,0,0,0,0,0,1,
scooby_state_44546a|53|1 1,0,0,0,0,0,0,0,0,0,0,0,0,0,0,1,
scooby_state_44544f|42|1 1,0,0,0,0,0,0,0,0,0,0,0,0,0,0,1,
scooby_state_445494|44|1 1,0,0,0,0,0,0,0,0,0,0,0,0,0,0,1,
scooby_state_445494|39|0 1,0,0,0,0,0,0,0,0,0,0,0,0,0,0,1,
scooby_state_445494|45|1 1,0,0,0,0,0,0,0,0,0,0,0,0,0,0,1,
scooby_state_535584|27|12 0,1,0,0,0,0,0,0,0,0,0,0,0,0,0,1,
scooby_state_44544f|5|1 1,0,0,0,0,0,0,0,0,0,0,0,0,0,0,1,
scooby_state_44544f|1|1 1,0,0,0,0,0,0,0,0,0,0,0,0,0,0,1,
scooby_state_44544f|45|1 1,0,0,0,0,0,0,0,0,0,0,0,0,0,0,1,
scooby_state_445494|40|1 1,0,0,0,0,0,0,0,0,0,0,0,0,0,0,1,
scooby_state_535599|44|-7 1,0,0,0,0,0,0,0,0,0,0,0,0,0,0,1,
scooby_state_5354c3|19|1 1,0,0,0,0,0,0,0,0,0,0,0,0,0,0,1,
scooby_state_509003|0|0 1,0,0,0,0,0,0,0,0,0,0,0,0,0,0,1,
scooby_state_44546a|41|1 1,0,0,0,0,0,0,0,0,0,0,0,0,0,0,1,
scooby_state_44547d|17|0 1,0,0,0,0,0,0,0,0,0,0,0,0,0,0,1,
scooby_state_535501|20|1 1,0,0,0,0,0,0,0,0,0,0,0,0,0,0,1,
scooby_state_44546a|60|1 1,0,0,0,0,0,0,0,0,0,0,0,0,0,0,1,
scooby_state_445494|55|1 1,0,0,0,0,0,0,0,0,0,0,0,0,0,0,1,
scooby_state_44546a|46|1 1,0,0,0,0,0,0,0,0,0,0,0,0,0,0,1,
scooby_state_44544f|53|1 1,0,0,0,0,0,0,0,0,0,0,0,0,0,0,1,
scooby_state_44544f|62|1 1,0,0,0,0,0,0,0,0,0,0,0,0,0,0,1,
scooby_state_44544f|6|1 1,0,0,0,0,0,0,0,0,0,0,0,0,0,0,1,
scooby_state_43f480|18|1 1,0,0,0,0,0,0,0,0,0,0,0,0,0,0,1,
scooby_state_5355a2|35|-8 1,0,0,0,0,0,0,0,0,0,0,0,0,0,0,1,
scooby_state_4453e6|9|9 1,0,0,0,0,0,0,0,0,0,0,0,0,0,0,1,
scooby_state_4453ad|23|3 1,0,0,0,0,0,0,0,0,0,0,0,0,0,0,1,
scooby_state_535584|22|1 1,0,0,0,0,0,0,0,0,0,0,0,0,0,0,1,
scooby_state_55f902|36|1 1,0,0,0,0,0,0,0,0,0,0,0,0,0,0,1,
scooby_state_4003f0|0|0 1,0,0,0,0,0,0,0,0,0,0,0,0,0,0,1,
scooby_state_44546a|58|1 1,0,0,0,0,0,0,0,0,0,0,0,0,0,0,1,
scooby_state_43f6c6|27|1 1,0,0,0,0,0,0,0,0,0,0,0,0,0,0,1,
scooby_state_44546a|0|0 1,0,0,0,0,0,0,0,0,0,0,0,0,0,0,1,
scooby_state_44546a|10|1 1,0,0,0,0,0,0,0,0,0,0,0,0,0,0,1,
scooby_state_43f4e2|57|-1 1,0,0,0,0,0,0,0,0,0,0,0,0,0,0,1,
scooby_state_44544f|55|1 1,0,0,0,0,0,0,0,0,0,0,0,0,0,0,1,
scooby_state_43f2d5|55|-2 1,0,0,0,0,0,0,0,0,0,0,0,0,0,0,1,
scooby_state_44546a|63|1 1,0,0,0,0,0,0,0,0,0,0,0,0,0,0,1,
scooby_state_43f4e2|26|-1 1,0,0,0,0,0,0,0,0,0,0,0,0,0,0,1,
scooby_state_44546a|8|1 1,0,0,0,0,0,0,0,0,0,0,0,0,0,0,1,
scooby_state_44544f|4|1 1,0,0,0,0,0,0,0,0,0,0,0,0,0,0,1,
scooby_state_43f39f|55|0 1,0,0,0,0,0,0,0,0,0,0,0,0,0,0,1,
scooby_state_44546a|5|1 1,0,0,0,0,0,0,0,0,0,0,0,0,0,0,1,
scooby_state_43f432|33|-8 1,0,0,0,0,0,0,0,0,0,0,0,0,0,0,1,
scooby_state_44544f|54|1 1,0,0,0,0,0,0,0,0,0,0,0,0,0,0,1,
scooby_state_44544f|3|1 1,0,0,0,0,0,0,0,0,0,0,0,0,0,0,1,
scooby_state_445494|3|1 1,0,0,0,0,0,0,0,0,0,0,0,0,0,0,1,
scooby_state_44546a|4|1 1,0,0,0,0,0,0,0,0,0,0,0,0,0,0,1,
scooby_state_563540|61|0 1,0,0,0,0,0,0,0,0,0,0,0,0,0,0,1,
scooby_state_445494|2|1 1,0,0,0,0,0,0,0,0,0,0,0,0,0,0,1,

scooby_action_0_deg_dist 0,43,0,0,0,0,0,0,0,0,0,0,0,0,0,0,
scooby_action_4_deg_dist 0,34,0,0,0,0,0,0,0,0,0,0,0,0,0,0,
scooby_action_32_deg_dist 0,39,0,0,0,0,0,0,0,0,0,0,0,0,0,0,
scooby_action_3_deg_dist 0,56,0,0,0,0,0,0,0,0,0,0,0,0,0,0,
scooby_action_5_deg_dist 0,45,0,0,0,0,0,0,0,0,0,0,0,0,0,0,
scooby_action_1_deg_dist 0,25025,14780,0,35298,0,231678,0,0,0,0,0,0,0,0,0,
scooby_action_30_deg_dist 0,49,0,0,0,0,0,0,0,0,0,0,0,0,0,0,
scooby_action_-3_deg_dist 0,538,0,0,0,0,0,0,0,0,0,0,0,0,0,0,
scooby_action_10_deg_dist 0,55,0,0,0,0,0,0,0,0,0,0,0,0,0,0,
scooby_action_-1_deg_dist 0,495,0,0,0,0,0,0,0,0,0,0,0,0,0,0,
scooby_action_23_deg_dist 0,39,0,0,0,0,0,0,0,0,0,0,0,0,0,0,
scooby_action_-6_deg_dist 0,33,0,0,0,0,0,0,0,0,0,0,0,0,0,0,
scooby_action_11_deg_dist 0,41,0,0,0,0,0,0,0,0,0,0,0,0,0,0,
scooby_action_22_deg_dist 0,48,0,0,0,0,0,0,0,0,0,0,0,0,0,0,
scooby_action_12_deg_dist 0,47,0,0,0,0,0,0,0,0,0,0,0,0,0,0,

scooby_track_called 308343
scooby_track_same_address 837
scooby_track_evict 307250

scooby_reward_demand_called 308343
scooby_reward_demand_pt_not_found 11097
scooby_reward_demand_pt_found 297246
scooby_reward_demand_pt_found_total 297246
scooby_reward_demand_has_reward 1
scooby_reward_train_called 5358
scooby_reward_assign_reward_called 307501
scooby_reward_no_pref 43
scooby_reward_incorrect 5315
scooby_reward_correct_untimely 253836
scooby_reward_correct_timely 43409
scooby_reward_out_of_bounds 4898
scooby_reward_tracker_hit 0

scooby_reward_none_low_bw 43
scooby_reward_none_high_bw 0
scooby_reward_incorrect_low_bw 5315
scooby_reward_incorrect_high_bw 0
scooby_reward_correct_untimely_low_bw 253836
scooby_reward_correct_untimely_high_bw 0
scooby_reward_correct_timely_low_bw 43409
scooby_reward_correct_timely_high_bw 0
scooby_reward_out_of_bounds_low_bw 4898
scooby_reward_out_of_bounds_high_bw 0
scooby_reward_tracker_hit_low_bw 0
scooby_reward_tracker_hit_high_bw 0

scooby_reward_1 0,5246,253291,43176,4779,0,
scooby_reward_3 0,12,25,17,1,0,
scooby_reward_4 0,8,9,15,2,0,
scooby_reward_5 0,5,10,25,5,0,
scooby_reward_10 0,2,0,40,13,0,
scooby_reward_11 0,4,0,30,7,0,
scooby_reward_12 0,3,0,32,12,0,
scooby_reward_22 0,6,0,23,19,0,
scooby_reward_23 0,5,0,17,17,0,
scooby_reward_30 0,10,0,20,19,0,
scooby_reward_32 0,5,0,14,20,0,
scooby_reward_-1 0,2,0,0,2,0,
scooby_reward_-3 0,4,501,0,0,0,
scooby_reward_-6 0,3,0,0,2,0,
scooby_reward_0 43,0,0,0,0,0,

scooby_train_called 307249
scooby_train_compute_reward 5358

scooby_register_fill_called 283193
scooby_register_fill_set 44244
scooby_register_fill_set_total 44244

scooby_register_prefetch_hit_called 766234
scooby_register_prefetch_hit_set 233256
scooby_register_prefetch_hit_set_total 233256

scooby_pref_issue_scooby 1491562

learning_engine_featurewise.action.called 308343
learning_engine_featurewise.action.explore 581
learning_engine_featurewise.action.exploit 307762
learning_engine_featurewise.action.fallback 0
learning_engine_featurewise.action.dyn_fallback_saved_bw 0
learning_engine_featurewise.action.dyn_fallback_saved_bw_acc 189
learning_engine_featurewise.action.index_1_explored 34
learning_engine_featurewise.action.index_1_exploited 306747
learning_engine_featurewise.action.index_3_explored 40
learning_engine_featurewise.action.index_3_exploited 16
learning_engine_featurewise.action.index_4_explored 29
learning_engine_featurewise.action.index_4_exploited 5
learning_engine_featurewise.action.index_5_explored 40
learning_engine_featurewise.action.index_5_exploited 5
learning_engine_featurewise.action.index_10_explored 50
learning_engine_featurewise.action.index_10_exploited 5
learning_engine_featurewise.action.index_11_explored 36
learning_engine_featurewise.action.index_11_exploited 5
learning_engine_featurewise.action.index_12_explored 42
learning_engine_featurewise.action.index_12_exploited 5
learning_engine_featurewise.action.index_22_explored 43
learning_engine_featurewise.action.index_22_exploited 5
learning_engine_featurewise.action.index_23_explored 34
learning_engine_featurewise.action.index_23_exploited 5
learning_engine_featurewise.action.index_30_explored 44
learning_engine_featurewise.action.index_30_exploited 5
learning_engine_featurewise.action.index_32_explored 33
learning_engine_featurewise.action.index_32_exploited 6
learning_engine_featurewise.action.index_-1_explored 45
learning_engine_featurewise.action.index_-1_exploited 450
learning_engine_featurewise.action.index_-3_explored 35
learning_engine_featurewise.action.index_-3_exploited 503
learning_engine_featurewise.action.index_-6_explored 33
learning_engine_featurewise.action.index_-6_exploited 0
learning_engine_featurewise.action.index_0_explored 43
learning_engine_featurewise.action.index_0_exploited 0
learning_engine_featurewise.learn.called 307249
learning_engine_featurewise.learn.su_skip_PC 0
learning_engine_featurewise.learn.su_skip_PC_Delta 0

learning_engine_featurewise.q_value_histogram.bucket_0 0
learning_engine_featurewise.q_value_histogram.bucket_1 0
learning_engine_featurewise.q_value_histogram.bucket_2 0
learning_engine_featurewise.q_value_histogram.bucket_3 0
learning_engine_featurewise.q_value_histogram.bucket_4 1732
learning_engine_featurewise.q_value_histogram.bucket_5 1557
learning_engine_featurewise.q_value_histogram.bucket_6 304473
learning_engine_featurewise.q_value_histogram.bucket_7 0

learning_engine_featurewise.consensus.total 307762
learning_engine_featurewise.consensus.feature_align_PC 307057
learning_engine_featurewise.consensus.feature_align_PC_ratio 1.00
learning_engine_featurewise.consensus.feature_align_PC_Delta 307670
learning_engine_featurewise.consensus.feature_align_PC_Delta_ratio 1.00
learning_engine_featurewise.consensus.feature_align_all 306965
learning_engine_featurewise.consensus.feature_align_all_ratio 1.00

learning_engine_featurewise.feature_PC_min_weight 1000000.00000000
learning_engine_featurewise.feature_PC_max_weight 0.00000000
learning_engine_featurewise.feature_PC_Delta_min_weight 1000000.00000000
learning_engine_featurewise.feature_PC_Delta_max_weight 0.00000000
unique_pcs 155
unique_pages 7739
unique_trigger_pcs 61
total_bitmaps_seen 0
unique_bitmaps_seen 0

scooby_bw_epochs 328565
scooby_bw_level_0 274585
scooby_bw_level_1 12815
scooby_bw_level_2 14944
scooby_bw_level_3 26221

scooby_ipc_epochs 0
scooby_ipc_level_0 0
scooby_ipc_level_1 0
scooby_ipc_level_2 0
scooby_ipc_level_3 0

scooby_cache_acc_epochs 81087
scooby_cache_acc_level_0 15678
scooby_cache_acc_level_1 15515
scooby_cache_acc_level_2 15188
scooby_cache_acc_level_3 659
scooby_cache_acc_level_4 445
scooby_cache_acc_level_5 15057
scooby_cache_acc_level_6 1053
scooby_cache_acc_level_7 1744
scooby_cache_acc_level_8 3291
scooby_cache_acc_level_9 12457

Channel_0_RQ_row_buffer_hit 231520
Channel_0_RQ_row_buffer_miss 234246
Channel_0_WQ_row_buffer_hit 17272
Channel_0_WQ_row_buffer_miss 113169
Channel_0_WQ_full 0
Channel_0_dbus_congested 392539

avg_congested_cycle 10

DRAM_bw_pochs 328565
DRAM_bw_level_0 274585
DRAM_bw_level_1 12815
DRAM_bw_level_2 14944
DRAM_bw_level_3 26221
