*************************************************
   ChampSim Multicore Out-of-Order Simulator
   Last compiled: Apr  3 2025 20:54:34
*************************************************
parsing config file: /home/zir/Pythia/config/nopref.ini

trace_0 /home/zir/ChampSim/ML-DPC/ChampSimTraces/spec06/410.bwaves-s0.trace.gz
adding L2C_PREFETCHER: NONE
Initialize SHIP state
warmup_instructions 10000000
simulation_instructions 50000000
champsim_seed 163
measure_ipc 0
measure_ipc_epoch 1000
measure_dram_bw 1
measure_dram_bw_epoch 256
measure_cache_acc 1
measure_cache_acc_epoch 1024
l1d_perfect 0
l2c_perfect 0
llc_perfect 0
l1d_semi_perfect 0
l2c_semi_perfect 0
llc_semi_perfect 0
semi_perfect_cache_page_buffer_size 64

num_cpus 1
cpu_freq 4000
dram_io_freq 2400
page_size 4096
block_size 64
max_read_per_cycle 8
max_fill_per_cycle 1
dram_channels 1
log2_dram_channels 0
dram_ranks 1
dram_banks 8
dram_rows 65536
dram_columns 128
dram_row_size 8
dram_size 4096
dram_pages 1048576

fetch_width 6
decode_width 6
exec_width 4
lq_width 2
sq_width 2
retire_width 4
scheduler_size 128
branch_mispredict_penalty 20
rob_size 256
lq_size 72
sq_size 56
num_instr_destinations_sparc 4
num_instr_destinations 2
num_instr_sources 4

itlb_set 16
itlb_way 8
itlb_rq_size 16
itlb_wq_size 16
itlb_pq_size 0
itlb_mshr_size 8
itlb_latency 1

dtlb_set 16
dtlb_way 4
dtlb_rq_size 16
dtlb_wq_size 16
dtlb_pq_size 0
dtlb_mshr_size 8
dtlb_latency 1

stlb_set 128
stlb_way 12
stlb_rq_size 32
stlb_wq_size 32
stlb_pq_size 0
stlb_mshr_size 16
stlb_latency 8

l1i_size 32
l1i_set 64
l1i_way 8
l1i_rq_size 64
l1i_wq_size 64
l1i_pq_size 8
l1i_mshr_size 8
l1i_latency 1

l1d_size 32
l1d_set 64
l1d_way 8
l1d_rq_size 64
l1d_wq_size 64
l1d_pq_size 8
l1d_mshr_size 16
l1d_latency 4

l2c_size 256
l2c_set 512
l2c_way 8
l2c_rq_size 32
l2c_wq_size 32
l2c_pq_size 32
l2c_mshr_size 32
l2c_latency 10

llc_size 2048
llc_set 2048
llc_way 16
llc_rq_size 32
llc_wq_size 32
llc_pq_size 32
llc_mshr_size 64
llc_latency 20

dram_channel_width 8
dram_wq_size 64
dram_rq_size 64
tRP 15
tRCD 15
tCAS 12.5
dram_dbus_turn_around_time 30
dram_write_high_wm 56
dram_write_low_wm 48
min_dram_writes_per_switch 16
dram_mtps 2400
dram_dbus_return_time 13


Heartbeat CPU  0 instructions:    1000002 cycles:     630265 heartbeat IPC: 1.58664 cumulative IPC: 1.58664 (Simulation time: 0 hr 0 min 2 sec) 
Heartbeat CPU  0 instructions:    2000003 cycles:    1258849 heartbeat IPC: 1.59088 cumulative IPC: 1.58876 (Simulation time: 0 hr 0 min 4 sec) 
Heartbeat CPU  0 instructions:    3000000 cycles:    1887482 heartbeat IPC: 1.59075 cumulative IPC: 1.58942 (Simulation time: 0 hr 0 min 6 sec) 
Heartbeat CPU  0 instructions:    4000000 cycles:    2515897 heartbeat IPC: 1.59131 cumulative IPC: 1.58989 (Simulation time: 0 hr 0 min 8 sec) 
Heartbeat CPU  0 instructions:    5000000 cycles:    3144645 heartbeat IPC: 1.59046 cumulative IPC: 1.59000 (Simulation time: 0 hr 0 min 10 sec) 
Heartbeat CPU  0 instructions:    6000001 cycles:    3773069 heartbeat IPC: 1.59128 cumulative IPC: 1.59022 (Simulation time: 0 hr 0 min 12 sec) 
Heartbeat CPU  0 instructions:    7000000 cycles:    4401653 heartbeat IPC: 1.59088 cumulative IPC: 1.59031 (Simulation time: 0 hr 0 min 14 sec) 
Heartbeat CPU  0 instructions:    8000000 cycles:    5030281 heartbeat IPC: 1.59077 cumulative IPC: 1.59037 (Simulation time: 0 hr 0 min 16 sec) 
Heartbeat CPU  0 instructions:    9000001 cycles:    5658922 heartbeat IPC: 1.59073 cumulative IPC: 1.59041 (Simulation time: 0 hr 0 min 18 sec) 
Heartbeat CPU  0 instructions:   10000003 cycles:    6287350 heartbeat IPC: 1.59128 cumulative IPC: 1.59050 (Simulation time: 0 hr 0 min 21 sec) 

Warmup complete CPU  0 instructions:   10000003 cycles:    6287350 (Simulation time: 0 hr 0 min 21 sec) 

Heartbeat CPU  0 instructions:   11000003 cycles:    8020989 heartbeat IPC: 0.57682 cumulative IPC: 0.57682 (Simulation time: 0 hr 0 min 23 sec) 
Heartbeat CPU  0 instructions:   12000000 cycles:    9784324 heartbeat IPC: 0.56711 cumulative IPC: 0.57192 (Simulation time: 0 hr 0 min 26 sec) 
Heartbeat CPU  0 instructions:   13000001 cycles:   11555202 heartbeat IPC: 0.56469 cumulative IPC: 0.56949 (Simulation time: 0 hr 0 min 28 sec) 
Heartbeat CPU  0 instructions:   14000001 cycles:   13313579 heartbeat IPC: 0.56871 cumulative IPC: 0.56930 (Simulation time: 0 hr 0 min 31 sec) 
Heartbeat CPU  0 instructions:   15000000 cycles:   15078547 heartbeat IPC: 0.56658 cumulative IPC: 0.56875 (Simulation time: 0 hr 0 min 33 sec) 
Heartbeat CPU  0 instructions:   16000000 cycles:   16845104 heartbeat IPC: 0.56607 cumulative IPC: 0.56830 (Simulation time: 0 hr 0 min 36 sec) 
Heartbeat CPU  0 instructions:   17000001 cycles:   18627322 heartbeat IPC: 0.56110 cumulative IPC: 0.56726 (Simulation time: 0 hr 0 min 39 sec) 
Heartbeat CPU  0 instructions:   18000003 cycles:   20373418 heartbeat IPC: 0.57271 cumulative IPC: 0.56794 (Simulation time: 0 hr 0 min 41 sec) 
Heartbeat CPU  0 instructions:   19000000 cycles:   22126134 heartbeat IPC: 0.57054 cumulative IPC: 0.56823 (Simulation time: 0 hr 0 min 44 sec) 
Heartbeat CPU  0 instructions:   20000000 cycles:   23863120 heartbeat IPC: 0.57571 cumulative IPC: 0.56896 (Simulation time: 0 hr 0 min 46 sec) 
Heartbeat CPU  0 instructions:   21000002 cycles:   25633488 heartbeat IPC: 0.56486 cumulative IPC: 0.56859 (Simulation time: 0 hr 0 min 49 sec) 
Heartbeat CPU  0 instructions:   22000001 cycles:   27374623 heartbeat IPC: 0.57434 cumulative IPC: 0.56906 (Simulation time: 0 hr 0 min 52 sec) 
Heartbeat CPU  0 instructions:   23000003 cycles:   29120169 heartbeat IPC: 0.57289 cumulative IPC: 0.56936 (Simulation time: 0 hr 0 min 54 sec) 
Heartbeat CPU  0 instructions:   24000000 cycles:   30886707 heartbeat IPC: 0.56608 cumulative IPC: 0.56912 (Simulation time: 0 hr 0 min 57 sec) 
Heartbeat CPU  0 instructions:   25000002 cycles:   32634715 heartbeat IPC: 0.57208 cumulative IPC: 0.56932 (Simulation time: 0 hr 0 min 59 sec) 
Heartbeat CPU  0 instructions:   26000002 cycles:   34382373 heartbeat IPC: 0.57219 cumulative IPC: 0.56950 (Simulation time: 0 hr 1 min 2 sec) 
Heartbeat CPU  0 instructions:   27000003 cycles:   36119256 heartbeat IPC: 0.57574 cumulative IPC: 0.56986 (Simulation time: 0 hr 1 min 5 sec) 
Heartbeat CPU  0 instructions:   28000000 cycles:   37866197 heartbeat IPC: 0.57243 cumulative IPC: 0.57000 (Simulation time: 0 hr 1 min 7 sec) 
Heartbeat CPU  0 instructions:   29000000 cycles:   39602002 heartbeat IPC: 0.57610 cumulative IPC: 0.57032 (Simulation time: 0 hr 1 min 10 sec) 
Heartbeat CPU  0 instructions:   30000002 cycles:   41356967 heartbeat IPC: 0.56981 cumulative IPC: 0.57029 (Simulation time: 0 hr 1 min 12 sec) 
Heartbeat CPU  0 instructions:   31000002 cycles:   43105091 heartbeat IPC: 0.57204 cumulative IPC: 0.57038 (Simulation time: 0 hr 1 min 15 sec) 
Heartbeat CPU  0 instructions:   32000000 cycles:   44852083 heartbeat IPC: 0.57241 cumulative IPC: 0.57047 (Simulation time: 0 hr 1 min 18 sec) 
Heartbeat CPU  0 instructions:   33000000 cycles:   46635697 heartbeat IPC: 0.56066 cumulative IPC: 0.57004 (Simulation time: 0 hr 1 min 20 sec) 
Heartbeat CPU  0 instructions:   34000001 cycles:   48385262 heartbeat IPC: 0.57157 cumulative IPC: 0.57010 (Simulation time: 0 hr 1 min 23 sec) 
Heartbeat CPU  0 instructions:   35000002 cycles:   50141088 heartbeat IPC: 0.56953 cumulative IPC: 0.57008 (Simulation time: 0 hr 1 min 25 sec) 
Heartbeat CPU  0 instructions:   36000000 cycles:   51881215 heartbeat IPC: 0.57467 cumulative IPC: 0.57025 (Simulation time: 0 hr 1 min 28 sec) 
Heartbeat CPU  0 instructions:   37000001 cycles:   53631378 heartbeat IPC: 0.57138 cumulative IPC: 0.57029 (Simulation time: 0 hr 1 min 31 sec) 
Heartbeat CPU  0 instructions:   38000001 cycles:   55365932 heartbeat IPC: 0.57652 cumulative IPC: 0.57051 (Simulation time: 0 hr 1 min 33 sec) 
Heartbeat CPU  0 instructions:   39000003 cycles:   57110547 heartbeat IPC: 0.57319 cumulative IPC: 0.57061 (Simulation time: 0 hr 1 min 36 sec) 
Heartbeat CPU  0 instructions:   40000000 cycles:   58860257 heartbeat IPC: 0.57152 cumulative IPC: 0.57064 (Simulation time: 0 hr 1 min 38 sec) 
Heartbeat CPU  0 instructions:   41000001 cycles:   60605934 heartbeat IPC: 0.57284 cumulative IPC: 0.57071 (Simulation time: 0 hr 1 min 41 sec) 
Heartbeat CPU  0 instructions:   42000000 cycles:   62352838 heartbeat IPC: 0.57244 cumulative IPC: 0.57076 (Simulation time: 0 hr 1 min 44 sec) 
Heartbeat CPU  0 instructions:   43000001 cycles:   64100750 heartbeat IPC: 0.57211 cumulative IPC: 0.57080 (Simulation time: 0 hr 1 min 46 sec) 
Heartbeat CPU  0 instructions:   44000000 cycles:   65838428 heartbeat IPC: 0.57548 cumulative IPC: 0.57094 (Simulation time: 0 hr 1 min 49 sec) 
Heartbeat CPU  0 instructions:   45000000 cycles:   67590730 heartbeat IPC: 0.57068 cumulative IPC: 0.57093 (Simulation time: 0 hr 1 min 51 sec) 
Heartbeat CPU  0 instructions:   46000000 cycles:   69341567 heartbeat IPC: 0.57116 cumulative IPC: 0.57094 (Simulation time: 0 hr 1 min 54 sec) 
Heartbeat CPU  0 instructions:   47000000 cycles:   71091047 heartbeat IPC: 0.57160 cumulative IPC: 0.57096 (Simulation time: 0 hr 1 min 57 sec) 
Heartbeat CPU  0 instructions:   48000000 cycles:   72842019 heartbeat IPC: 0.57111 cumulative IPC: 0.57096 (Simulation time: 0 hr 1 min 59 sec) 
Heartbeat CPU  0 instructions:   49000001 cycles:   74602724 heartbeat IPC: 0.56795 cumulative IPC: 0.57088 (Simulation time: 0 hr 2 min 2 sec) 
Heartbeat CPU  0 instructions:   50000002 cycles:   76345543 heartbeat IPC: 0.57378 cumulative IPC: 0.57095 (Simulation time: 0 hr 2 min 4 sec) 
Heartbeat CPU  0 instructions:   51000000 cycles:   78117523 heartbeat IPC: 0.56434 cumulative IPC: 0.57079 (Simulation time: 0 hr 2 min 7 sec) 
Heartbeat CPU  0 instructions:   52000000 cycles:   79871118 heartbeat IPC: 0.57026 cumulative IPC: 0.57078 (Simulation time: 0 hr 2 min 9 sec) 
Heartbeat CPU  0 instructions:   53000003 cycles:   81619596 heartbeat IPC: 0.57193 cumulative IPC: 0.57080 (Simulation time: 0 hr 2 min 12 sec) 
Heartbeat CPU  0 instructions:   54000001 cycles:   83392606 heartbeat IPC: 0.56401 cumulative IPC: 0.57065 (Simulation time: 0 hr 2 min 15 sec) 
Heartbeat CPU  0 instructions:   55000000 cycles:   85143987 heartbeat IPC: 0.57098 cumulative IPC: 0.57066 (Simulation time: 0 hr 2 min 17 sec) 
Heartbeat CPU  0 instructions:   56000000 cycles:   86943012 heartbeat IPC: 0.55586 cumulative IPC: 0.57033 (Simulation time: 0 hr 2 min 20 sec) 
Heartbeat CPU  0 instructions:   57000003 cycles:   88684933 heartbeat IPC: 0.57408 cumulative IPC: 0.57041 (Simulation time: 0 hr 2 min 22 sec) 
Heartbeat CPU  0 instructions:   58000000 cycles:   90455345 heartbeat IPC: 0.56484 cumulative IPC: 0.57029 (Simulation time: 0 hr 2 min 25 sec) 
Heartbeat CPU  0 instructions:   59000001 cycles:   92197107 heartbeat IPC: 0.57413 cumulative IPC: 0.57037 (Simulation time: 0 hr 2 min 28 sec) 
Heartbeat CPU  0 instructions:   60000000 cycles:   93947051 heartbeat IPC: 0.57145 cumulative IPC: 0.57039 (Simulation time: 0 hr 2 min 30 sec) 
Finished CPU 0 instructions: 50000000 cycles: 87659761 cumulative IPC: 0.57039 (Simulation time: 0 hr 2 min 30 sec) 

ChampSim completed all CPUs

[ROI Statistics]
Core_0_instructions 50000000
Core_0_cycles 87659761
Core_0_IPC 0.57039

Core_0_branch_prediction_accuracy 99.94973
Core_0_branch_MPKI 0.01504
Core_0_average_ROB_occupancy_at_mispredict 248.26596

Core_0_L1D_total_access 20413552
Core_0_L1D_total_hit 19198342
Core_0_L1D_total_miss 1215210
Core_0_L1D_loads 19023835
Core_0_L1D_load_hit 17837914
Core_0_L1D_load_miss 1185921
Core_0_L1D_RFOs 1389717
Core_0_L1D_RFO_hit 1360428
Core_0_L1D_RFO_miss 29289
Core_0_L1D_prefetches 0
Core_0_L1D_prefetch_hit 0
Core_0_L1D_prefetch_miss 0
Core_0_L1D_writebacks 0
Core_0_L1D_writeback_hit 0
Core_0_L1D_writeback_miss 0
Core_0_L1D_prefetch_requested 0
Core_0_L1D_prefetch_dropped 0
Core_0_L1D_prefetch_issued 0
Core_0_L1D_prefetch_filled 0
Core_0_L1D_prefetch_useful 0
Core_0_L1D_prefetch_useless 0
Core_0_L1D_prefetch_late 0
Core_0_L1D_average_miss_latency 303.35474

Core_0_L1D_rq_access 26135103
Core_0_L1D_rq_forward 0
Core_0_L1D_rq_merged 6793597
Core_0_L1D_rq_to_cache 19341506
Core_0_L1D_rq_full 0

Core_0_L1D_wq_access 1408347
Core_0_L1D_wq_forward 0
Core_0_L1D_wq_merged 0
Core_0_L1D_wq_to_cache 1408347
Core_0_L1D_wq_full 0

Core_0_L1D_pq_access 0
Core_0_L1D_pq_forward 0
Core_0_L1D_pq_merged 0
Core_0_L1D_pq_to_cache 0
Core_0_L1D_pq_full 0

Core_0_L1D_acc_epochs 90076
Core_0_L1D_acc_level_0 90076
Core_0_L1D_acc_level_1 0
Core_0_L1D_acc_level_2 0
Core_0_L1D_acc_level_3 0
Core_0_L1D_acc_level_4 0
Core_0_L1D_acc_level_5 0
Core_0_L1D_acc_level_6 0
Core_0_L1D_acc_level_7 0
Core_0_L1D_acc_level_8 0
Core_0_L1D_acc_level_9 0

Core_0_L1I_total_access 14151984
Core_0_L1I_total_hit 14151984
Core_0_L1I_total_miss 0
Core_0_L1I_loads 14151984
Core_0_L1I_load_hit 14151984
Core_0_L1I_load_miss 0
Core_0_L1I_RFOs 0
Core_0_L1I_RFO_hit 0
Core_0_L1I_RFO_miss 0
Core_0_L1I_prefetches 0
Core_0_L1I_prefetch_hit 0
Core_0_L1I_prefetch_miss 0
Core_0_L1I_writebacks 0
Core_0_L1I_writeback_hit 0
Core_0_L1I_writeback_miss 0
Core_0_L1I_prefetch_requested 0
Core_0_L1I_prefetch_dropped 0
Core_0_L1I_prefetch_issued 0
Core_0_L1I_prefetch_filled 0
Core_0_L1I_prefetch_useful 0
Core_0_L1I_prefetch_useless 0
Core_0_L1I_prefetch_late 0
Core_0_L1I_average_miss_latency -nan

Core_0_L1I_rq_access 50000007
Core_0_L1I_rq_forward 0
Core_0_L1I_rq_merged 35848023
Core_0_L1I_rq_to_cache 14151984
Core_0_L1I_rq_full 0

Core_0_L1I_wq_access 0
Core_0_L1I_wq_forward 0
Core_0_L1I_wq_merged 0
Core_0_L1I_wq_to_cache 0
Core_0_L1I_wq_full 0

Core_0_L1I_pq_access 0
Core_0_L1I_pq_forward 0
Core_0_L1I_pq_merged 0
Core_0_L1I_pq_to_cache 0
Core_0_L1I_pq_full 0

Core_0_L1I_acc_epochs 90076
Core_0_L1I_acc_level_0 90076
Core_0_L1I_acc_level_1 0
Core_0_L1I_acc_level_2 0
Core_0_L1I_acc_level_3 0
Core_0_L1I_acc_level_4 0
Core_0_L1I_acc_level_5 0
Core_0_L1I_acc_level_6 0
Core_0_L1I_acc_level_7 0
Core_0_L1I_acc_level_8 0
Core_0_L1I_acc_level_9 0

Core_0_L2C_total_access 1247059
Core_0_L2C_total_hit 108228
Core_0_L2C_total_miss 1138831
Core_0_L2C_loads 1185640
Core_0_L2C_load_hit 76465
Core_0_L2C_load_miss 1109175
Core_0_L2C_RFOs 29282
Core_0_L2C_RFO_hit 93
Core_0_L2C_RFO_miss 29189
Core_0_L2C_prefetches 0
Core_0_L2C_prefetch_hit 0
Core_0_L2C_prefetch_miss 0
Core_0_L2C_writebacks 32137
Core_0_L2C_writeback_hit 31670
Core_0_L2C_writeback_miss 467
Core_0_L2C_prefetch_requested 0
Core_0_L2C_prefetch_dropped 0
Core_0_L2C_prefetch_issued 0
Core_0_L2C_prefetch_filled 0
Core_0_L2C_prefetch_useful 0
Core_0_L2C_prefetch_useless 0
Core_0_L2C_prefetch_late 0
Core_0_L2C_average_miss_latency 306.91731

Core_0_L2C_rq_access 1215210
Core_0_L2C_rq_forward 0
Core_0_L2C_rq_merged 0
Core_0_L2C_rq_to_cache 1214922
Core_0_L2C_rq_full 0

Core_0_L2C_wq_access 32137
Core_0_L2C_wq_forward 288
Core_0_L2C_wq_merged 0
Core_0_L2C_wq_to_cache 32137
Core_0_L2C_wq_full 0

Core_0_L2C_pq_access 0
Core_0_L2C_pq_forward 0
Core_0_L2C_pq_merged 0
Core_0_L2C_pq_to_cache 0
Core_0_L2C_pq_full 0

Core_0_L2C_acc_epochs 90076
Core_0_L2C_acc_level_0 90076
Core_0_L2C_acc_level_1 0
Core_0_L2C_acc_level_2 0
Core_0_L2C_acc_level_3 0
Core_0_L2C_acc_level_4 0
Core_0_L2C_acc_level_5 0
Core_0_L2C_acc_level_6 0
Core_0_L2C_acc_level_7 0
Core_0_L2C_acc_level_8 0
Core_0_L2C_acc_level_9 0

Core_0_LLC_total_access 1168015
Core_0_LLC_total_hit 980
Core_0_LLC_total_miss 1167035
Core_0_LLC_loads 1109175
Core_0_LLC_load_hit 374
Core_0_LLC_load_miss 1108801
Core_0_LLC_RFOs 29189
Core_0_LLC_RFO_hit 0
Core_0_LLC_RFO_miss 29189
Core_0_LLC_prefetches 0
Core_0_LLC_prefetch_hit 0
Core_0_LLC_prefetch_miss 0
Core_0_LLC_writebacks 29651
Core_0_LLC_writeback_hit 606
Core_0_LLC_writeback_miss 29045
Core_0_LLC_prefetch_requested 0
Core_0_LLC_prefetch_dropped 0
Core_0_LLC_prefetch_issued 0
Core_0_LLC_prefetch_filled 0
Core_0_LLC_prefetch_useful 0
Core_0_LLC_prefetch_useless 0
Core_0_LLC_prefetch_late 0
Core_0_LLC_average_miss_latency 269.57965

Core_0_LLC_rq_access 1138364
Core_0_LLC_rq_forward 0
Core_0_LLC_rq_merged 0
Core_0_LLC_rq_to_cache 1138364
Core_0_LLC_rq_full 0

Core_0_LLC_wq_access 29651
Core_0_LLC_wq_forward 0
Core_0_LLC_wq_merged 0
Core_0_LLC_wq_to_cache 29651
Core_0_LLC_wq_full 0

Core_0_LLC_pq_access 0
Core_0_LLC_pq_forward 0
Core_0_LLC_pq_merged 0
Core_0_LLC_pq_to_cache 0
Core_0_LLC_pq_full 0

Core_0_LLC_acc_epochs 91746
Core_0_LLC_acc_level_0 91746
Core_0_LLC_acc_level_1 0
Core_0_LLC_acc_level_2 0
Core_0_LLC_acc_level_3 0
Core_0_LLC_acc_level_4 0
Core_0_LLC_acc_level_5 0
Core_0_LLC_acc_level_6 0
Core_0_LLC_acc_level_7 0
Core_0_LLC_acc_level_8 0
Core_0_LLC_acc_level_9 0

Core_0_major_page_fault 0
Core_0_minor_page_fault 20347

Channel_0_RQ_row_buffer_hit 889754
Channel_0_RQ_row_buffer_miss 248236
Channel_0_WQ_row_buffer_hit 904
Channel_0_WQ_row_buffer_miss 5294
Channel_0_WQ_full 0
Channel_0_dbus_congested 83954

avg_congested_cycle 6

DRAM_bw_pochs 366981
DRAM_bw_level_0 198820
DRAM_bw_level_1 98199
DRAM_bw_level_2 35158
DRAM_bw_level_3 34804
