*************************************************
   ChampSim Multicore Out-of-Order Simulator
   Last compiled: Apr  3 2025 20:54:34
*************************************************
parsing config file: /home/zir/Pythia/config/nopref.ini

trace_0 /home/zir/ChampSim/ML-DPC/ChampSimTraces/spec17/619.lbm-s1.trace.xz
adding L2C_PREFETCHER: NONE
Initialize SHIP state
warmup_instructions 10000000
simulation_instructions 50000000
champsim_seed 164
measure_ipc 0
measure_ipc_epoch 1000
measure_dram_bw 1
measure_dram_bw_epoch 256
measure_cache_acc 1
measure_cache_acc_epoch 1024
l1d_perfect 0
l2c_perfect 0
llc_perfect 0
l1d_semi_perfect 0
l2c_semi_perfect 0
llc_semi_perfect 0
semi_perfect_cache_page_buffer_size 64

num_cpus 1
cpu_freq 4000
dram_io_freq 2400
page_size 4096
block_size 64
max_read_per_cycle 8
max_fill_per_cycle 1
dram_channels 1
log2_dram_channels 0
dram_ranks 1
dram_banks 8
dram_rows 65536
dram_columns 128
dram_row_size 8
dram_size 4096
dram_pages 1048576

fetch_width 6
decode_width 6
exec_width 4
lq_width 2
sq_width 2
retire_width 4
scheduler_size 128
branch_mispredict_penalty 20
rob_size 256
lq_size 72
sq_size 56
num_instr_destinations_sparc 4
num_instr_destinations 2
num_instr_sources 4

itlb_set 16
itlb_way 8
itlb_rq_size 16
itlb_wq_size 16
itlb_pq_size 0
itlb_mshr_size 8
itlb_latency 1

dtlb_set 16
dtlb_way 4
dtlb_rq_size 16
dtlb_wq_size 16
dtlb_pq_size 0
dtlb_mshr_size 8
dtlb_latency 1

stlb_set 128
stlb_way 12
stlb_rq_size 32
stlb_wq_size 32
stlb_pq_size 0
stlb_mshr_size 16
stlb_latency 8

l1i_size 32
l1i_set 64
l1i_way 8
l1i_rq_size 64
l1i_wq_size 64
l1i_pq_size 8
l1i_mshr_size 8
l1i_latency 1

l1d_size 32
l1d_set 64
l1d_way 8
l1d_rq_size 64
l1d_wq_size 64
l1d_pq_size 8
l1d_mshr_size 16
l1d_latency 4

l2c_size 256
l2c_set 512
l2c_way 8
l2c_rq_size 32
l2c_wq_size 32
l2c_pq_size 32
l2c_mshr_size 32
l2c_latency 10

llc_size 2048
llc_set 2048
llc_way 16
llc_rq_size 32
llc_wq_size 32
llc_pq_size 32
llc_mshr_size 64
llc_latency 20

dram_channel_width 8
dram_wq_size 64
dram_rq_size 64
tRP 15
tRCD 15
tCAS 12.5
dram_dbus_turn_around_time 30
dram_write_high_wm 56
dram_write_low_wm 48
min_dram_writes_per_switch 16
dram_mtps 2400
dram_dbus_return_time 13


Heartbeat CPU  0 instructions:    1000002 cycles:     421409 heartbeat IPC: 2.37300 cumulative IPC: 2.37300 (Simulation time: 0 hr 0 min 2 sec) 
Heartbeat CPU  0 instructions:    2000002 cycles:     842956 heartbeat IPC: 2.37221 cumulative IPC: 2.37261 (Simulation time: 0 hr 0 min 4 sec) 
Heartbeat CPU  0 instructions:    3000001 cycles:    1254541 heartbeat IPC: 2.42963 cumulative IPC: 2.39131 (Simulation time: 0 hr 0 min 6 sec) 
Heartbeat CPU  0 instructions:    4000000 cycles:    1668789 heartbeat IPC: 2.41401 cumulative IPC: 2.39695 (Simulation time: 0 hr 0 min 7 sec) 
Heartbeat CPU  0 instructions:    5000001 cycles:    2097213 heartbeat IPC: 2.33414 cumulative IPC: 2.38412 (Simulation time: 0 hr 0 min 9 sec) 
Heartbeat CPU  0 instructions:    6000000 cycles:    2518643 heartbeat IPC: 2.37287 cumulative IPC: 2.38224 (Simulation time: 0 hr 0 min 11 sec) 
Heartbeat CPU  0 instructions:    7000000 cycles:    2944538 heartbeat IPC: 2.34800 cumulative IPC: 2.37728 (Simulation time: 0 hr 0 min 13 sec) 
Heartbeat CPU  0 instructions:    8000000 cycles:    3369566 heartbeat IPC: 2.35279 cumulative IPC: 2.37419 (Simulation time: 0 hr 0 min 15 sec) 
Heartbeat CPU  0 instructions:    9000000 cycles:    3791670 heartbeat IPC: 2.36908 cumulative IPC: 2.37362 (Simulation time: 0 hr 0 min 16 sec) 
Heartbeat CPU  0 instructions:   10000000 cycles:    4213647 heartbeat IPC: 2.36980 cumulative IPC: 2.37324 (Simulation time: 0 hr 0 min 18 sec) 

Warmup complete CPU  0 instructions:   10000004 cycles:    4213648 (Simulation time: 0 hr 0 min 18 sec) 

Heartbeat CPU  0 instructions:   11000000 cycles:    7282722 heartbeat IPC: 0.32583 cumulative IPC: 0.32583 (Simulation time: 0 hr 0 min 21 sec) 
Heartbeat CPU  0 instructions:   12000000 cycles:    9609731 heartbeat IPC: 0.42974 cumulative IPC: 0.37064 (Simulation time: 0 hr 0 min 24 sec) 
Heartbeat CPU  0 instructions:   13000003 cycles:   13088155 heartbeat IPC: 0.28749 cumulative IPC: 0.33805 (Simulation time: 0 hr 0 min 28 sec) 
Heartbeat CPU  0 instructions:   14000001 cycles:   16259337 heartbeat IPC: 0.31534 cumulative IPC: 0.33207 (Simulation time: 0 hr 0 min 31 sec) 
Heartbeat CPU  0 instructions:   15000001 cycles:   19225373 heartbeat IPC: 0.33715 cumulative IPC: 0.33307 (Simulation time: 0 hr 0 min 34 sec) 
Heartbeat CPU  0 instructions:   16000000 cycles:   22779815 heartbeat IPC: 0.28134 cumulative IPC: 0.32317 (Simulation time: 0 hr 0 min 38 sec) 
Heartbeat CPU  0 instructions:   17000003 cycles:   25787462 heartbeat IPC: 0.33249 cumulative IPC: 0.32447 (Simulation time: 0 hr 0 min 41 sec) 
Heartbeat CPU  0 instructions:   18000001 cycles:   29156668 heartbeat IPC: 0.29681 cumulative IPC: 0.32073 (Simulation time: 0 hr 0 min 45 sec) 
Heartbeat CPU  0 instructions:   19000003 cycles:   32476365 heartbeat IPC: 0.30123 cumulative IPC: 0.31844 (Simulation time: 0 hr 0 min 48 sec) 
Heartbeat CPU  0 instructions:   20000000 cycles:   35009946 heartbeat IPC: 0.39470 cumulative IPC: 0.32471 (Simulation time: 0 hr 0 min 51 sec) 
Heartbeat CPU  0 instructions:   21000001 cycles:   37913966 heartbeat IPC: 0.34435 cumulative IPC: 0.32641 (Simulation time: 0 hr 0 min 54 sec) 
Heartbeat CPU  0 instructions:   22000000 cycles:   41244634 heartbeat IPC: 0.30024 cumulative IPC: 0.32405 (Simulation time: 0 hr 0 min 57 sec) 
Heartbeat CPU  0 instructions:   23000002 cycles:   44309726 heartbeat IPC: 0.32626 cumulative IPC: 0.32422 (Simulation time: 0 hr 1 min 1 sec) 
Heartbeat CPU  0 instructions:   24000000 cycles:   47668477 heartbeat IPC: 0.29773 cumulative IPC: 0.32217 (Simulation time: 0 hr 1 min 4 sec) 
Heartbeat CPU  0 instructions:   25000000 cycles:   50979886 heartbeat IPC: 0.30199 cumulative IPC: 0.32074 (Simulation time: 0 hr 1 min 8 sec) 
Heartbeat CPU  0 instructions:   26000000 cycles:   54263347 heartbeat IPC: 0.30456 cumulative IPC: 0.31968 (Simulation time: 0 hr 1 min 11 sec) 
Heartbeat CPU  0 instructions:   27000000 cycles:   57684829 heartbeat IPC: 0.29227 cumulative IPC: 0.31793 (Simulation time: 0 hr 1 min 14 sec) 
Heartbeat CPU  0 instructions:   28000000 cycles:   60666439 heartbeat IPC: 0.33539 cumulative IPC: 0.31885 (Simulation time: 0 hr 1 min 18 sec) 
Heartbeat CPU  0 instructions:   29000003 cycles:   63153847 heartbeat IPC: 0.40203 cumulative IPC: 0.32236 (Simulation time: 0 hr 1 min 20 sec) 
Heartbeat CPU  0 instructions:   30000001 cycles:   66508404 heartbeat IPC: 0.29810 cumulative IPC: 0.32105 (Simulation time: 0 hr 1 min 24 sec) 
Heartbeat CPU  0 instructions:   31000003 cycles:   69561861 heartbeat IPC: 0.32750 cumulative IPC: 0.32136 (Simulation time: 0 hr 1 min 27 sec) 
Heartbeat CPU  0 instructions:   32000000 cycles:   72395793 heartbeat IPC: 0.35287 cumulative IPC: 0.32267 (Simulation time: 0 hr 1 min 30 sec) 
Heartbeat CPU  0 instructions:   33000003 cycles:   75947788 heartbeat IPC: 0.28153 cumulative IPC: 0.32063 (Simulation time: 0 hr 1 min 34 sec) 
Heartbeat CPU  0 instructions:   34000003 cycles:   78988649 heartbeat IPC: 0.32885 cumulative IPC: 0.32096 (Simulation time: 0 hr 1 min 37 sec) 
Heartbeat CPU  0 instructions:   35000001 cycles:   82389407 heartbeat IPC: 0.29405 cumulative IPC: 0.31979 (Simulation time: 0 hr 1 min 40 sec) 
Heartbeat CPU  0 instructions:   36000000 cycles:   85611637 heartbeat IPC: 0.31034 cumulative IPC: 0.31942 (Simulation time: 0 hr 1 min 44 sec) 
Heartbeat CPU  0 instructions:   37000001 cycles:   88226506 heartbeat IPC: 0.38243 cumulative IPC: 0.32138 (Simulation time: 0 hr 1 min 47 sec) 
Heartbeat CPU  0 instructions:   38000003 cycles:   91458000 heartbeat IPC: 0.30946 cumulative IPC: 0.32094 (Simulation time: 0 hr 1 min 50 sec) 
Heartbeat CPU  0 instructions:   39000002 cycles:   94642601 heartbeat IPC: 0.31401 cumulative IPC: 0.32069 (Simulation time: 0 hr 1 min 53 sec) 
Heartbeat CPU  0 instructions:   40000000 cycles:   97509741 heartbeat IPC: 0.34878 cumulative IPC: 0.32156 (Simulation time: 0 hr 1 min 57 sec) 
Heartbeat CPU  0 instructions:   41000002 cycles:  100817008 heartbeat IPC: 0.30237 cumulative IPC: 0.32090 (Simulation time: 0 hr 2 min 0 sec) 
Heartbeat CPU  0 instructions:   42000001 cycles:  103888689 heartbeat IPC: 0.32555 cumulative IPC: 0.32104 (Simulation time: 0 hr 2 min 3 sec) 
Heartbeat CPU  0 instructions:   43000000 cycles:  107447769 heartbeat IPC: 0.28097 cumulative IPC: 0.31966 (Simulation time: 0 hr 2 min 7 sec) 
Heartbeat CPU  0 instructions:   44000000 cycles:  110648077 heartbeat IPC: 0.31247 cumulative IPC: 0.31945 (Simulation time: 0 hr 2 min 10 sec) 
Heartbeat CPU  0 instructions:   45000003 cycles:  113630493 heartbeat IPC: 0.33530 cumulative IPC: 0.31988 (Simulation time: 0 hr 2 min 13 sec) 
Heartbeat CPU  0 instructions:   46000000 cycles:  116477598 heartbeat IPC: 0.35123 cumulative IPC: 0.32067 (Simulation time: 0 hr 2 min 16 sec) 
Heartbeat CPU  0 instructions:   47000001 cycles:  119814659 heartbeat IPC: 0.29967 cumulative IPC: 0.32007 (Simulation time: 0 hr 2 min 20 sec) 
Heartbeat CPU  0 instructions:   48000000 cycles:  122846772 heartbeat IPC: 0.32980 cumulative IPC: 0.32032 (Simulation time: 0 hr 2 min 23 sec) 
Heartbeat CPU  0 instructions:   49000002 cycles:  125861581 heartbeat IPC: 0.33170 cumulative IPC: 0.32060 (Simulation time: 0 hr 2 min 26 sec) 
Heartbeat CPU  0 instructions:   50000001 cycles:  129095707 heartbeat IPC: 0.30920 cumulative IPC: 0.32030 (Simulation time: 0 hr 2 min 30 sec) 
Heartbeat CPU  0 instructions:   51000000 cycles:  132214301 heartbeat IPC: 0.32066 cumulative IPC: 0.32031 (Simulation time: 0 hr 2 min 33 sec) 
Heartbeat CPU  0 instructions:   52000000 cycles:  135573928 heartbeat IPC: 0.29765 cumulative IPC: 0.31973 (Simulation time: 0 hr 2 min 36 sec) 
Heartbeat CPU  0 instructions:   53000001 cycles:  138598540 heartbeat IPC: 0.33062 cumulative IPC: 0.31998 (Simulation time: 0 hr 2 min 39 sec) 
Heartbeat CPU  0 instructions:   54000003 cycles:  141168967 heartbeat IPC: 0.38904 cumulative IPC: 0.32127 (Simulation time: 0 hr 2 min 42 sec) 
Heartbeat CPU  0 instructions:   55000000 cycles:  144810501 heartbeat IPC: 0.27461 cumulative IPC: 0.32006 (Simulation time: 0 hr 2 min 46 sec) 
Heartbeat CPU  0 instructions:   56000000 cycles:  148048820 heartbeat IPC: 0.30880 cumulative IPC: 0.31981 (Simulation time: 0 hr 2 min 49 sec) 
Heartbeat CPU  0 instructions:   57000000 cycles:  151138739 heartbeat IPC: 0.32363 cumulative IPC: 0.31989 (Simulation time: 0 hr 2 min 52 sec) 
Heartbeat CPU  0 instructions:   58000002 cycles:  154190835 heartbeat IPC: 0.32764 cumulative IPC: 0.32005 (Simulation time: 0 hr 2 min 56 sec) 
Heartbeat CPU  0 instructions:   59000003 cycles:  157210303 heartbeat IPC: 0.33118 cumulative IPC: 0.32027 (Simulation time: 0 hr 2 min 59 sec) 
Heartbeat CPU  0 instructions:   60000000 cycles:  160572814 heartbeat IPC: 0.29740 cumulative IPC: 0.31978 (Simulation time: 0 hr 3 min 2 sec) 
Finished CPU 0 instructions: 50000000 cycles: 156359417 cumulative IPC: 0.31978 (Simulation time: 0 hr 3 min 2 sec) 

ChampSim completed all CPUs

[ROI Statistics]
Core_0_instructions 50000000
Core_0_cycles 156359417
Core_0_IPC 0.31978

Core_0_branch_prediction_accuracy 97.06075
Core_0_branch_MPKI 0.52484
Core_0_average_ROB_occupancy_at_mispredict 242.37600

Core_0_L1D_total_access 14147154
Core_0_L1D_total_hit 10248819
Core_0_L1D_total_miss 3898335
Core_0_L1D_loads 5020587
Core_0_L1D_load_hit 4429503
Core_0_L1D_load_miss 591084
Core_0_L1D_RFOs 9126567
Core_0_L1D_RFO_hit 5819316
Core_0_L1D_RFO_miss 3307251
Core_0_L1D_prefetches 0
Core_0_L1D_prefetch_hit 0
Core_0_L1D_prefetch_miss 0
Core_0_L1D_writebacks 0
Core_0_L1D_writeback_hit 0
Core_0_L1D_writeback_miss 0
Core_0_L1D_prefetch_requested 0
Core_0_L1D_prefetch_dropped 0
Core_0_L1D_prefetch_issued 0
Core_0_L1D_prefetch_filled 0
Core_0_L1D_prefetch_useful 0
Core_0_L1D_prefetch_useless 0
Core_0_L1D_prefetch_late 0
Core_0_L1D_average_miss_latency 404.43625

Core_0_L1D_rq_access 11774129
Core_0_L1D_rq_forward 0
Core_0_L1D_rq_merged 6462966
Core_0_L1D_rq_to_cache 5265635
Core_0_L1D_rq_full 0

Core_0_L1D_wq_access 9189245
Core_0_L1D_wq_forward 45528
Core_0_L1D_wq_merged 9996
Core_0_L1D_wq_to_cache 9179249
Core_0_L1D_wq_full 6670

Core_0_L1D_pq_access 0
Core_0_L1D_pq_forward 0
Core_0_L1D_pq_merged 0
Core_0_L1D_pq_to_cache 0
Core_0_L1D_pq_full 0

Core_0_L1D_acc_epochs 153242
Core_0_L1D_acc_level_0 153242
Core_0_L1D_acc_level_1 0
Core_0_L1D_acc_level_2 0
Core_0_L1D_acc_level_3 0
Core_0_L1D_acc_level_4 0
Core_0_L1D_acc_level_5 0
Core_0_L1D_acc_level_6 0
Core_0_L1D_acc_level_7 0
Core_0_L1D_acc_level_8 0
Core_0_L1D_acc_level_9 0

Core_0_L1I_total_access 11612646
Core_0_L1I_total_hit 11612646
Core_0_L1I_total_miss 0
Core_0_L1I_loads 11612646
Core_0_L1I_load_hit 11612646
Core_0_L1I_load_miss 0
Core_0_L1I_RFOs 0
Core_0_L1I_RFO_hit 0
Core_0_L1I_RFO_miss 0
Core_0_L1I_prefetches 0
Core_0_L1I_prefetch_hit 0
Core_0_L1I_prefetch_miss 0
Core_0_L1I_writebacks 0
Core_0_L1I_writeback_hit 0
Core_0_L1I_writeback_miss 0
Core_0_L1I_prefetch_requested 0
Core_0_L1I_prefetch_dropped 0
Core_0_L1I_prefetch_issued 0
Core_0_L1I_prefetch_filled 0
Core_0_L1I_prefetch_useful 0
Core_0_L1I_prefetch_useless 0
Core_0_L1I_prefetch_late 0
Core_0_L1I_average_miss_latency -nan

Core_0_L1I_rq_access 50000148
Core_0_L1I_rq_forward 0
Core_0_L1I_rq_merged 38387502
Core_0_L1I_rq_to_cache 11612646
Core_0_L1I_rq_full 0

Core_0_L1I_wq_access 0
Core_0_L1I_wq_forward 0
Core_0_L1I_wq_merged 0
Core_0_L1I_wq_to_cache 0
Core_0_L1I_wq_full 0

Core_0_L1I_pq_access 0
Core_0_L1I_pq_forward 0
Core_0_L1I_pq_merged 0
Core_0_L1I_pq_to_cache 0
Core_0_L1I_pq_full 0

Core_0_L1I_acc_epochs 153242
Core_0_L1I_acc_level_0 153242
Core_0_L1I_acc_level_1 0
Core_0_L1I_acc_level_2 0
Core_0_L1I_acc_level_3 0
Core_0_L1I_acc_level_4 0
Core_0_L1I_acc_level_5 0
Core_0_L1I_acc_level_6 0
Core_0_L1I_acc_level_7 0
Core_0_L1I_acc_level_8 0
Core_0_L1I_acc_level_9 0

Core_0_L2C_total_access 7205582
Core_0_L2C_total_hit 4143738
Core_0_L2C_total_miss 3061844
Core_0_L2C_loads 591084
Core_0_L2C_load_hit 338
Core_0_L2C_load_miss 590746
Core_0_L2C_RFOs 3307245
Core_0_L2C_RFO_hit 837126
Core_0_L2C_RFO_miss 2470119
Core_0_L2C_prefetches 0
Core_0_L2C_prefetch_hit 0
Core_0_L2C_prefetch_miss 0
Core_0_L2C_writebacks 3307253
Core_0_L2C_writeback_hit 3306274
Core_0_L2C_writeback_miss 979
Core_0_L2C_prefetch_requested 0
Core_0_L2C_prefetch_dropped 0
Core_0_L2C_prefetch_issued 0
Core_0_L2C_prefetch_filled 0
Core_0_L2C_prefetch_useful 0
Core_0_L2C_prefetch_useless 0
Core_0_L2C_prefetch_late 0
Core_0_L2C_average_miss_latency 495.24004

Core_0_L2C_rq_access 3898333
Core_0_L2C_rq_forward 0
Core_0_L2C_rq_merged 0
Core_0_L2C_rq_to_cache 3898327
Core_0_L2C_rq_full 0

Core_0_L2C_wq_access 3307253
Core_0_L2C_wq_forward 6
Core_0_L2C_wq_merged 0
Core_0_L2C_wq_to_cache 3307253
Core_0_L2C_wq_full 0

Core_0_L2C_pq_access 0
Core_0_L2C_pq_forward 0
Core_0_L2C_pq_merged 0
Core_0_L2C_pq_to_cache 0
Core_0_L2C_pq_full 0

Core_0_L2C_acc_epochs 153242
Core_0_L2C_acc_level_0 153242
Core_0_L2C_acc_level_1 0
Core_0_L2C_acc_level_2 0
Core_0_L2C_acc_level_3 0
Core_0_L2C_acc_level_4 0
Core_0_L2C_acc_level_5 0
Core_0_L2C_acc_level_6 0
Core_0_L2C_acc_level_7 0
Core_0_L2C_acc_level_8 0
Core_0_L2C_acc_level_9 0

Core_0_LLC_total_access 5532568
Core_0_LLC_total_hit 2285068
Core_0_LLC_total_miss 3247500
Core_0_LLC_loads 590746
Core_0_LLC_load_hit 402
Core_0_LLC_load_miss 590344
Core_0_LLC_RFOs 2469858
Core_0_LLC_RFO_hit 696269
Core_0_LLC_RFO_miss 1773589
Core_0_LLC_prefetches 0
Core_0_LLC_prefetch_hit 0
Core_0_LLC_prefetch_miss 0
Core_0_LLC_writebacks 2471964
Core_0_LLC_writeback_hit 1588397
Core_0_LLC_writeback_miss 883567
Core_0_LLC_prefetch_requested 0
Core_0_LLC_prefetch_dropped 0
Core_0_LLC_prefetch_issued 0
Core_0_LLC_prefetch_filled 0
Core_0_LLC_prefetch_useful 0
Core_0_LLC_prefetch_useless 0
Core_0_LLC_prefetch_late 0
Core_0_LLC_average_miss_latency 437.08111

Core_0_LLC_rq_access 3060863
Core_0_LLC_rq_forward 0
Core_0_LLC_rq_merged 0
Core_0_LLC_rq_to_cache 3060602
Core_0_LLC_rq_full 0

Core_0_LLC_wq_access 2471964
Core_0_LLC_wq_forward 261
Core_0_LLC_wq_merged 0
Core_0_LLC_wq_to_cache 2471964
Core_0_LLC_wq_full 0

Core_0_LLC_pq_access 0
Core_0_LLC_pq_forward 0
Core_0_LLC_pq_merged 0
Core_0_LLC_pq_to_cache 0
Core_0_LLC_pq_full 0

Core_0_LLC_acc_epochs 156810
Core_0_LLC_acc_level_0 156810
Core_0_LLC_acc_level_1 0
Core_0_LLC_acc_level_2 0
Core_0_LLC_acc_level_3 0
Core_0_LLC_acc_level_4 0
Core_0_LLC_acc_level_5 0
Core_0_LLC_acc_level_6 0
Core_0_LLC_acc_level_7 0
Core_0_LLC_acc_level_8 0
Core_0_LLC_acc_level_9 0

Core_0_major_page_fault 0
Core_0_minor_page_fault 25310

Channel_0_RQ_row_buffer_hit 127879
Channel_0_RQ_row_buffer_miss 2235952
Channel_0_WQ_row_buffer_hit 226402
Channel_0_WQ_row_buffer_miss 1548677
Channel_0_WQ_full 0
Channel_0_dbus_congested 2559155

avg_congested_cycle 11

DRAM_bw_pochs 627239
DRAM_bw_level_0 199543
DRAM_bw_level_1 233910
DRAM_bw_level_2 151833
DRAM_bw_level_3 41953
