*************************************************
   ChampSim Multicore Out-of-Order Simulator
   Last compiled: Apr  3 2025 20:54:34
*************************************************
parsing config file: /home/zir/Pythia/config/nopref.ini

trace_0 /home/zir/ChampSim/ML-DPC/ChampSimTraces/spec06/473.astar-s1.trace.gz
adding L2C_PREFETCHER: NONE
Initialize SHIP state
warmup_instructions 10000000
simulation_instructions 50000000
champsim_seed 164
measure_ipc 0
measure_ipc_epoch 1000
measure_dram_bw 1
measure_dram_bw_epoch 256
measure_cache_acc 1
measure_cache_acc_epoch 1024
l1d_perfect 0
l2c_perfect 0
llc_perfect 0
l1d_semi_perfect 0
l2c_semi_perfect 0
llc_semi_perfect 0
semi_perfect_cache_page_buffer_size 64

num_cpus 1
cpu_freq 4000
dram_io_freq 2400
page_size 4096
block_size 64
max_read_per_cycle 8
max_fill_per_cycle 1
dram_channels 1
log2_dram_channels 0
dram_ranks 1
dram_banks 8
dram_rows 65536
dram_columns 128
dram_row_size 8
dram_size 4096
dram_pages 1048576

fetch_width 6
decode_width 6
exec_width 4
lq_width 2
sq_width 2
retire_width 4
scheduler_size 128
branch_mispredict_penalty 20
rob_size 256
lq_size 72
sq_size 56
num_instr_destinations_sparc 4
num_instr_destinations 2
num_instr_sources 4

itlb_set 16
itlb_way 8
itlb_rq_size 16
itlb_wq_size 16
itlb_pq_size 0
itlb_mshr_size 8
itlb_latency 1

dtlb_set 16
dtlb_way 4
dtlb_rq_size 16
dtlb_wq_size 16
dtlb_pq_size 0
dtlb_mshr_size 8
dtlb_latency 1

stlb_set 128
stlb_way 12
stlb_rq_size 32
stlb_wq_size 32
stlb_pq_size 0
stlb_mshr_size 16
stlb_latency 8

l1i_size 32
l1i_set 64
l1i_way 8
l1i_rq_size 64
l1i_wq_size 64
l1i_pq_size 8
l1i_mshr_size 8
l1i_latency 1

l1d_size 32
l1d_set 64
l1d_way 8
l1d_rq_size 64
l1d_wq_size 64
l1d_pq_size 8
l1d_mshr_size 16
l1d_latency 4

l2c_size 256
l2c_set 512
l2c_way 8
l2c_rq_size 32
l2c_wq_size 32
l2c_pq_size 32
l2c_mshr_size 32
l2c_latency 10

llc_size 2048
llc_set 2048
llc_way 16
llc_rq_size 32
llc_wq_size 32
llc_pq_size 32
llc_mshr_size 64
llc_latency 20

dram_channel_width 8
dram_wq_size 64
dram_rq_size 64
tRP 15
tRCD 15
tCAS 12.5
dram_dbus_turn_around_time 30
dram_write_high_wm 56
dram_write_low_wm 48
min_dram_writes_per_switch 16
dram_mtps 2400
dram_dbus_return_time 13


Heartbeat CPU  0 instructions:    1000000 cycles:    1619677 heartbeat IPC: 0.61741 cumulative IPC: 0.61741 (Simulation time: 0 hr 0 min 1 sec) 
Heartbeat CPU  0 instructions:    2000003 cycles:    3236427 heartbeat IPC: 0.61853 cumulative IPC: 0.61797 (Simulation time: 0 hr 0 min 2 sec) 
Heartbeat CPU  0 instructions:    3000000 cycles:    4773097 heartbeat IPC: 0.65076 cumulative IPC: 0.62852 (Simulation time: 0 hr 0 min 3 sec) 
Heartbeat CPU  0 instructions:    4000000 cycles:    6364653 heartbeat IPC: 0.62832 cumulative IPC: 0.62847 (Simulation time: 0 hr 0 min 4 sec) 
Heartbeat CPU  0 instructions:    5000002 cycles:    8003190 heartbeat IPC: 0.61030 cumulative IPC: 0.62475 (Simulation time: 0 hr 0 min 5 sec) 
Heartbeat CPU  0 instructions:    6000000 cycles:    9597497 heartbeat IPC: 0.62723 cumulative IPC: 0.62516 (Simulation time: 0 hr 0 min 6 sec) 
Heartbeat CPU  0 instructions:    7000002 cycles:   11229563 heartbeat IPC: 0.61272 cumulative IPC: 0.62335 (Simulation time: 0 hr 0 min 7 sec) 
Heartbeat CPU  0 instructions:    8000000 cycles:   12891143 heartbeat IPC: 0.60184 cumulative IPC: 0.62058 (Simulation time: 0 hr 0 min 8 sec) 
Heartbeat CPU  0 instructions:    9000000 cycles:   14534159 heartbeat IPC: 0.60864 cumulative IPC: 0.61923 (Simulation time: 0 hr 0 min 9 sec) 
Heartbeat CPU  0 instructions:   10000003 cycles:   16180242 heartbeat IPC: 0.60750 cumulative IPC: 0.61804 (Simulation time: 0 hr 0 min 10 sec) 

Warmup complete CPU  0 instructions:   10000003 cycles:   16180242 (Simulation time: 0 hr 0 min 10 sec) 

Heartbeat CPU  0 instructions:   11000000 cycles:   20542129 heartbeat IPC: 0.22926 cumulative IPC: 0.22926 (Simulation time: 0 hr 0 min 12 sec) 
Heartbeat CPU  0 instructions:   12000000 cycles:   24652203 heartbeat IPC: 0.24330 cumulative IPC: 0.23607 (Simulation time: 0 hr 0 min 13 sec) 
Heartbeat CPU  0 instructions:   13000002 cycles:   28617049 heartbeat IPC: 0.25222 cumulative IPC: 0.24122 (Simulation time: 0 hr 0 min 15 sec) 
Heartbeat CPU  0 instructions:   14000002 cycles:   32904187 heartbeat IPC: 0.23326 cumulative IPC: 0.23918 (Simulation time: 0 hr 0 min 16 sec) 
Heartbeat CPU  0 instructions:   15000000 cycles:   37527286 heartbeat IPC: 0.21630 cumulative IPC: 0.23422 (Simulation time: 0 hr 0 min 18 sec) 
Heartbeat CPU  0 instructions:   16000000 cycles:   41777840 heartbeat IPC: 0.23526 cumulative IPC: 0.23440 (Simulation time: 0 hr 0 min 19 sec) 
Heartbeat CPU  0 instructions:   17000002 cycles:   45808932 heartbeat IPC: 0.24807 cumulative IPC: 0.23626 (Simulation time: 0 hr 0 min 21 sec) 
Heartbeat CPU  0 instructions:   18000000 cycles:   49853825 heartbeat IPC: 0.24722 cumulative IPC: 0.23757 (Simulation time: 0 hr 0 min 22 sec) 
Heartbeat CPU  0 instructions:   19000000 cycles:   54039791 heartbeat IPC: 0.23889 cumulative IPC: 0.23772 (Simulation time: 0 hr 0 min 24 sec) 
Heartbeat CPU  0 instructions:   20000000 cycles:   58255552 heartbeat IPC: 0.23721 cumulative IPC: 0.23767 (Simulation time: 0 hr 0 min 26 sec) 
Heartbeat CPU  0 instructions:   21000001 cycles:   62623888 heartbeat IPC: 0.22892 cumulative IPC: 0.23685 (Simulation time: 0 hr 0 min 27 sec) 
Heartbeat CPU  0 instructions:   22000002 cycles:   67058153 heartbeat IPC: 0.22552 cumulative IPC: 0.23586 (Simulation time: 0 hr 0 min 29 sec) 
Heartbeat CPU  0 instructions:   23000003 cycles:   71679329 heartbeat IPC: 0.21640 cumulative IPC: 0.23424 (Simulation time: 0 hr 0 min 30 sec) 
Heartbeat CPU  0 instructions:   24000000 cycles:   76464300 heartbeat IPC: 0.20899 cumulative IPC: 0.23223 (Simulation time: 0 hr 0 min 32 sec) 
Heartbeat CPU  0 instructions:   25000001 cycles:   81639721 heartbeat IPC: 0.19322 cumulative IPC: 0.22915 (Simulation time: 0 hr 0 min 34 sec) 
Heartbeat CPU  0 instructions:   26000000 cycles:   87110714 heartbeat IPC: 0.18278 cumulative IPC: 0.22557 (Simulation time: 0 hr 0 min 35 sec) 
Heartbeat CPU  0 instructions:   27000000 cycles:   92361163 heartbeat IPC: 0.19046 cumulative IPC: 0.22315 (Simulation time: 0 hr 0 min 37 sec) 
Heartbeat CPU  0 instructions:   28000000 cycles:   97489204 heartbeat IPC: 0.19501 cumulative IPC: 0.22138 (Simulation time: 0 hr 0 min 39 sec) 
Heartbeat CPU  0 instructions:   29000000 cycles:  102294848 heartbeat IPC: 0.20809 cumulative IPC: 0.22064 (Simulation time: 0 hr 0 min 40 sec) 
Heartbeat CPU  0 instructions:   30000000 cycles:  107170224 heartbeat IPC: 0.20511 cumulative IPC: 0.21980 (Simulation time: 0 hr 0 min 42 sec) 
Heartbeat CPU  0 instructions:   31000001 cycles:  112098987 heartbeat IPC: 0.20289 cumulative IPC: 0.21894 (Simulation time: 0 hr 0 min 43 sec) 
Heartbeat CPU  0 instructions:   32000000 cycles:  117204625 heartbeat IPC: 0.19586 cumulative IPC: 0.21777 (Simulation time: 0 hr 0 min 45 sec) 
Heartbeat CPU  0 instructions:   33000001 cycles:  122513378 heartbeat IPC: 0.18837 cumulative IPC: 0.21630 (Simulation time: 0 hr 0 min 47 sec) 
Heartbeat CPU  0 instructions:   34000002 cycles:  127893509 heartbeat IPC: 0.18587 cumulative IPC: 0.21484 (Simulation time: 0 hr 0 min 48 sec) 
Heartbeat CPU  0 instructions:   35000003 cycles:  133094399 heartbeat IPC: 0.19227 cumulative IPC: 0.21383 (Simulation time: 0 hr 0 min 50 sec) 
Heartbeat CPU  0 instructions:   36000000 cycles:  138540801 heartbeat IPC: 0.18361 cumulative IPC: 0.21249 (Simulation time: 0 hr 0 min 51 sec) 
Heartbeat CPU  0 instructions:   37000000 cycles:  144108862 heartbeat IPC: 0.17960 cumulative IPC: 0.21106 (Simulation time: 0 hr 0 min 53 sec) 
Heartbeat CPU  0 instructions:   38000003 cycles:  149492458 heartbeat IPC: 0.18575 cumulative IPC: 0.21003 (Simulation time: 0 hr 0 min 55 sec) 
Heartbeat CPU  0 instructions:   39000000 cycles:  154759766 heartbeat IPC: 0.18985 cumulative IPC: 0.20927 (Simulation time: 0 hr 0 min 57 sec) 
Heartbeat CPU  0 instructions:   40000000 cycles:  159909707 heartbeat IPC: 0.19418 cumulative IPC: 0.20873 (Simulation time: 0 hr 0 min 58 sec) 
Heartbeat CPU  0 instructions:   41000001 cycles:  164947447 heartbeat IPC: 0.19850 cumulative IPC: 0.20838 (Simulation time: 0 hr 1 min 0 sec) 
Heartbeat CPU  0 instructions:   42000000 cycles:  170014282 heartbeat IPC: 0.19736 cumulative IPC: 0.20802 (Simulation time: 0 hr 1 min 1 sec) 
Heartbeat CPU  0 instructions:   43000000 cycles:  174678968 heartbeat IPC: 0.21438 cumulative IPC: 0.20820 (Simulation time: 0 hr 1 min 3 sec) 
Heartbeat CPU  0 instructions:   44000000 cycles:  179280345 heartbeat IPC: 0.21733 cumulative IPC: 0.20846 (Simulation time: 0 hr 1 min 5 sec) 
Heartbeat CPU  0 instructions:   45000001 cycles:  184011942 heartbeat IPC: 0.21135 cumulative IPC: 0.20854 (Simulation time: 0 hr 1 min 6 sec) 
Heartbeat CPU  0 instructions:   46000002 cycles:  188552721 heartbeat IPC: 0.22023 cumulative IPC: 0.20885 (Simulation time: 0 hr 1 min 8 sec) 
Heartbeat CPU  0 instructions:   47000002 cycles:  193090849 heartbeat IPC: 0.22036 cumulative IPC: 0.20915 (Simulation time: 0 hr 1 min 9 sec) 
Heartbeat CPU  0 instructions:   48000000 cycles:  197648693 heartbeat IPC: 0.21940 cumulative IPC: 0.20940 (Simulation time: 0 hr 1 min 11 sec) 
Heartbeat CPU  0 instructions:   49000003 cycles:  202387657 heartbeat IPC: 0.21102 cumulative IPC: 0.20944 (Simulation time: 0 hr 1 min 13 sec) 
Heartbeat CPU  0 instructions:   50000000 cycles:  207013015 heartbeat IPC: 0.21620 cumulative IPC: 0.20961 (Simulation time: 0 hr 1 min 14 sec) 
Heartbeat CPU  0 instructions:   51000001 cycles:  212274764 heartbeat IPC: 0.19005 cumulative IPC: 0.20908 (Simulation time: 0 hr 1 min 16 sec) 
Heartbeat CPU  0 instructions:   52000000 cycles:  217735535 heartbeat IPC: 0.18312 cumulative IPC: 0.20838 (Simulation time: 0 hr 1 min 17 sec) 
Heartbeat CPU  0 instructions:   53000000 cycles:  222061431 heartbeat IPC: 0.23117 cumulative IPC: 0.20886 (Simulation time: 0 hr 1 min 19 sec) 
Heartbeat CPU  0 instructions:   54000002 cycles:  226399829 heartbeat IPC: 0.23050 cumulative IPC: 0.20930 (Simulation time: 0 hr 1 min 21 sec) 
Heartbeat CPU  0 instructions:   55000000 cycles:  230776186 heartbeat IPC: 0.22850 cumulative IPC: 0.20970 (Simulation time: 0 hr 1 min 22 sec) 
Heartbeat CPU  0 instructions:   56000000 cycles:  235221509 heartbeat IPC: 0.22496 cumulative IPC: 0.21001 (Simulation time: 0 hr 1 min 24 sec) 
Heartbeat CPU  0 instructions:   57000001 cycles:  239512945 heartbeat IPC: 0.23302 cumulative IPC: 0.21045 (Simulation time: 0 hr 1 min 25 sec) 
Heartbeat CPU  0 instructions:   58000001 cycles:  243691292 heartbeat IPC: 0.23933 cumulative IPC: 0.21098 (Simulation time: 0 hr 1 min 27 sec) 
Heartbeat CPU  0 instructions:   59000000 cycles:  247961661 heartbeat IPC: 0.23417 cumulative IPC: 0.21141 (Simulation time: 0 hr 1 min 28 sec) 
Heartbeat CPU  0 instructions:   60000000 cycles:  252079709 heartbeat IPC: 0.24283 cumulative IPC: 0.21195 (Simulation time: 0 hr 1 min 30 sec) 
Finished CPU 0 instructions: 50000000 cycles: 235899479 cumulative IPC: 0.21195 (Simulation time: 0 hr 1 min 30 sec) 

ChampSim completed all CPUs

[ROI Statistics]
Core_0_instructions 50000000
Core_0_cycles 235899479
Core_0_IPC 0.21195

Core_0_branch_prediction_accuracy 75.07748
Core_0_branch_MPKI 47.62220
Core_0_average_ROB_occupancy_at_mispredict 20.75460

Core_0_L1D_total_access 13607598
Core_0_L1D_total_hit 12067659
Core_0_L1D_total_miss 1539939
Core_0_L1D_loads 11470287
Core_0_L1D_load_hit 9955946
Core_0_L1D_load_miss 1514341
Core_0_L1D_RFOs 2137311
Core_0_L1D_RFO_hit 2111713
Core_0_L1D_RFO_miss 25598
Core_0_L1D_prefetches 0
Core_0_L1D_prefetch_hit 0
Core_0_L1D_prefetch_miss 0
Core_0_L1D_writebacks 0
Core_0_L1D_writeback_hit 0
Core_0_L1D_writeback_miss 0
Core_0_L1D_prefetch_requested 0
Core_0_L1D_prefetch_dropped 0
Core_0_L1D_prefetch_issued 0
Core_0_L1D_prefetch_filled 0
Core_0_L1D_prefetch_useful 0
Core_0_L1D_prefetch_useless 0
Core_0_L1D_prefetch_late 0
Core_0_L1D_average_miss_latency 53.03191

Core_0_L1D_rq_access 14063885
Core_0_L1D_rq_forward 0
Core_0_L1D_rq_merged 2534416
Core_0_L1D_rq_to_cache 11529469
Core_0_L1D_rq_full 0

Core_0_L1D_wq_access 2138886
Core_0_L1D_wq_forward 0
Core_0_L1D_wq_merged 0
Core_0_L1D_wq_to_cache 2138886
Core_0_L1D_wq_full 0

Core_0_L1D_pq_access 0
Core_0_L1D_pq_forward 0
Core_0_L1D_pq_merged 0
Core_0_L1D_pq_to_cache 0
Core_0_L1D_pq_full 0

Core_0_L1D_acc_epochs 215042
Core_0_L1D_acc_level_0 215042
Core_0_L1D_acc_level_1 0
Core_0_L1D_acc_level_2 0
Core_0_L1D_acc_level_3 0
Core_0_L1D_acc_level_4 0
Core_0_L1D_acc_level_5 0
Core_0_L1D_acc_level_6 0
Core_0_L1D_acc_level_7 0
Core_0_L1D_acc_level_8 0
Core_0_L1D_acc_level_9 0

Core_0_L1I_total_access 10445069
Core_0_L1I_total_hit 10445069
Core_0_L1I_total_miss 0
Core_0_L1I_loads 10445069
Core_0_L1I_load_hit 10445069
Core_0_L1I_load_miss 0
Core_0_L1I_RFOs 0
Core_0_L1I_RFO_hit 0
Core_0_L1I_RFO_miss 0
Core_0_L1I_prefetches 0
Core_0_L1I_prefetch_hit 0
Core_0_L1I_prefetch_miss 0
Core_0_L1I_writebacks 0
Core_0_L1I_writeback_hit 0
Core_0_L1I_writeback_miss 0
Core_0_L1I_prefetch_requested 0
Core_0_L1I_prefetch_dropped 0
Core_0_L1I_prefetch_issued 0
Core_0_L1I_prefetch_filled 0
Core_0_L1I_prefetch_useful 0
Core_0_L1I_prefetch_useless 0
Core_0_L1I_prefetch_late 0
Core_0_L1I_average_miss_latency -nan

Core_0_L1I_rq_access 49999999
Core_0_L1I_rq_forward 0
Core_0_L1I_rq_merged 39554930
Core_0_L1I_rq_to_cache 10445069
Core_0_L1I_rq_full 0

Core_0_L1I_wq_access 0
Core_0_L1I_wq_forward 0
Core_0_L1I_wq_merged 0
Core_0_L1I_wq_to_cache 0
Core_0_L1I_wq_full 0

Core_0_L1I_pq_access 0
Core_0_L1I_pq_forward 0
Core_0_L1I_pq_merged 0
Core_0_L1I_pq_to_cache 0
Core_0_L1I_pq_full 0

Core_0_L1I_acc_epochs 215042
Core_0_L1I_acc_level_0 215042
Core_0_L1I_acc_level_1 0
Core_0_L1I_acc_level_2 0
Core_0_L1I_acc_level_3 0
Core_0_L1I_acc_level_4 0
Core_0_L1I_acc_level_5 0
Core_0_L1I_acc_level_6 0
Core_0_L1I_acc_level_7 0
Core_0_L1I_acc_level_8 0
Core_0_L1I_acc_level_9 0

Core_0_L2C_total_access 2041076
Core_0_L2C_total_hit 940219
Core_0_L2C_total_miss 1100857
Core_0_L2C_loads 1514330
Core_0_L2C_load_hit 423317
Core_0_L2C_load_miss 1091013
Core_0_L2C_RFOs 25595
Core_0_L2C_RFO_hit 16148
Core_0_L2C_RFO_miss 9447
Core_0_L2C_prefetches 0
Core_0_L2C_prefetch_hit 0
Core_0_L2C_prefetch_miss 0
Core_0_L2C_writebacks 501151
Core_0_L2C_writeback_hit 500754
Core_0_L2C_writeback_miss 397
Core_0_L2C_prefetch_requested 0
Core_0_L2C_prefetch_dropped 0
Core_0_L2C_prefetch_issued 0
Core_0_L2C_prefetch_filled 0
Core_0_L2C_prefetch_useful 0
Core_0_L2C_prefetch_useless 0
Core_0_L2C_prefetch_late 0
Core_0_L2C_average_miss_latency 50.55692

Core_0_L2C_rq_access 1539939
Core_0_L2C_rq_forward 0
Core_0_L2C_rq_merged 0
Core_0_L2C_rq_to_cache 1539925
Core_0_L2C_rq_full 0

Core_0_L2C_wq_access 501151
Core_0_L2C_wq_forward 14
Core_0_L2C_wq_merged 0
Core_0_L2C_wq_to_cache 501151
Core_0_L2C_wq_full 0

Core_0_L2C_pq_access 0
Core_0_L2C_pq_forward 0
Core_0_L2C_pq_merged 0
Core_0_L2C_pq_to_cache 0
Core_0_L2C_pq_full 0

Core_0_L2C_acc_epochs 215042
Core_0_L2C_acc_level_0 215042
Core_0_L2C_acc_level_1 0
Core_0_L2C_acc_level_2 0
Core_0_L2C_acc_level_3 0
Core_0_L2C_acc_level_4 0
Core_0_L2C_acc_level_5 0
Core_0_L2C_acc_level_6 0
Core_0_L2C_acc_level_7 0
Core_0_L2C_acc_level_8 0
Core_0_L2C_acc_level_9 0

Core_0_LLC_total_access 1476817
Core_0_LLC_total_hit 1356498
Core_0_LLC_total_miss 120319
Core_0_LLC_loads 1091006
Core_0_LLC_load_hit 972735
Core_0_LLC_load_miss 118271
Core_0_LLC_RFOs 9447
Core_0_LLC_RFO_hit 9342
Core_0_LLC_RFO_miss 105
Core_0_LLC_prefetches 0
Core_0_LLC_prefetch_hit 0
Core_0_LLC_prefetch_miss 0
Core_0_LLC_writebacks 376364
Core_0_LLC_writeback_hit 374421
Core_0_LLC_writeback_miss 1943
Core_0_LLC_prefetch_requested 0
Core_0_LLC_prefetch_dropped 0
Core_0_LLC_prefetch_issued 0
Core_0_LLC_prefetch_filled 0
Core_0_LLC_prefetch_useful 0
Core_0_LLC_prefetch_useless 0
Core_0_LLC_prefetch_late 0
Core_0_LLC_average_miss_latency 175.87778

Core_0_LLC_rq_access 1100460
Core_0_LLC_rq_forward 0
Core_0_LLC_rq_merged 0
Core_0_LLC_rq_to_cache 1100453
Core_0_LLC_rq_full 0

Core_0_LLC_wq_access 376364
Core_0_LLC_wq_forward 7
Core_0_LLC_wq_merged 0
Core_0_LLC_wq_to_cache 376364
Core_0_LLC_wq_full 0

Core_0_LLC_pq_access 0
Core_0_LLC_pq_forward 0
Core_0_LLC_pq_merged 0
Core_0_LLC_pq_to_cache 0
Core_0_LLC_pq_full 0

Core_0_LLC_acc_epochs 246172
Core_0_LLC_acc_level_0 246172
Core_0_LLC_acc_level_1 0
Core_0_LLC_acc_level_2 0
Core_0_LLC_acc_level_3 0
Core_0_LLC_acc_level_4 0
Core_0_LLC_acc_level_5 0
Core_0_LLC_acc_level_6 0
Core_0_LLC_acc_level_7 0
Core_0_LLC_acc_level_8 0
Core_0_LLC_acc_level_9 0

Core_0_major_page_fault 0
Core_0_minor_page_fault 4614

Channel_0_RQ_row_buffer_hit 20448
Channel_0_RQ_row_buffer_miss 97927
Channel_0_WQ_row_buffer_hit 1173
Channel_0_WQ_row_buffer_miss 64006
Channel_0_WQ_full 0
Channel_0_dbus_congested 5690

avg_congested_cycle 11

DRAM_bw_pochs 984687
DRAM_bw_level_0 984685
DRAM_bw_level_1 2
DRAM_bw_level_2 0
DRAM_bw_level_3 0
