*************************************************
   ChampSim Multicore Out-of-Order Simulator
   Last compiled: Apr  3 2025 20:54:34
*************************************************
parsing config file: /home/zir/Pythia/config/mlop.ini

trace_0 /home/zir/ChampSim/ML-DPC/ChampSimTraces/spec17/623.xalancbmk-s2.trace.xz
adding L2C_PREFETCHER: MLOP
Initialize SHIP state
warmup_instructions 10000000
simulation_instructions 50000000
champsim_seed 165
measure_ipc 0
measure_ipc_epoch 1000
measure_dram_bw 1
measure_dram_bw_epoch 256
measure_cache_acc 1
measure_cache_acc_epoch 1024
l1d_perfect 0
l2c_perfect 0
llc_perfect 0
l1d_semi_perfect 0
l2c_semi_perfect 0
llc_semi_perfect 0
semi_perfect_cache_page_buffer_size 64

num_cpus 1
cpu_freq 4000
dram_io_freq 2400
page_size 4096
block_size 64
max_read_per_cycle 8
max_fill_per_cycle 1
dram_channels 1
log2_dram_channels 0
dram_ranks 1
dram_banks 8
dram_rows 65536
dram_columns 128
dram_row_size 8
dram_size 4096
dram_pages 1048576

fetch_width 6
decode_width 6
exec_width 4
lq_width 2
sq_width 2
retire_width 4
scheduler_size 128
branch_mispredict_penalty 20
rob_size 256
lq_size 72
sq_size 56
num_instr_destinations_sparc 4
num_instr_destinations 2
num_instr_sources 4

itlb_set 16
itlb_way 8
itlb_rq_size 16
itlb_wq_size 16
itlb_pq_size 0
itlb_mshr_size 8
itlb_latency 1

dtlb_set 16
dtlb_way 4
dtlb_rq_size 16
dtlb_wq_size 16
dtlb_pq_size 0
dtlb_mshr_size 8
dtlb_latency 1

stlb_set 128
stlb_way 12
stlb_rq_size 32
stlb_wq_size 32
stlb_pq_size 0
stlb_mshr_size 16
stlb_latency 8

l1i_size 32
l1i_set 64
l1i_way 8
l1i_rq_size 64
l1i_wq_size 64
l1i_pq_size 8
l1i_mshr_size 8
l1i_latency 1

l1d_size 32
l1d_set 64
l1d_way 8
l1d_rq_size 64
l1d_wq_size 64
l1d_pq_size 8
l1d_mshr_size 16
l1d_latency 4

l2c_size 256
l2c_set 512
l2c_way 8
l2c_rq_size 32
l2c_wq_size 32
l2c_pq_size 32
l2c_mshr_size 32
l2c_latency 10

llc_size 2048
llc_set 2048
llc_way 16
llc_rq_size 32
llc_wq_size 32
llc_pq_size 32
llc_mshr_size 64
llc_latency 20

dram_channel_width 8
dram_wq_size 64
dram_rq_size 64
tRP 15
tRCD 15
tCAS 12.5
dram_dbus_turn_around_time 30
dram_write_high_wm 56
dram_write_low_wm 48
min_dram_writes_per_switch 16
dram_mtps 2400
dram_dbus_return_time 13

mlop_pref_degree 16
mlop_num_updates 500
mlop_l1d_thresh 2
mlop_l2c_thresh 0.75
mlop_llc_thresh 0.3
mlop_debug_level 0
mlop_blocks_in_cache 4096
mlop_blocks_in_zone 64
mlop_amt_size 2048
mlop_PF_DEGREE 16
mlop_NUM_UPDATES 500
mlop_L1D_THRESH 1000
mlop_L2C_THRESH 375
mlop_LLC_THRESH 150
mlop_ORIGIN 63
mlop_MAX_OFFSET 63
mlop_MIN_OFFSET -63
mlop_ORIGIN 63
mlop_NUM_OFFSETS 127


Heartbeat CPU  0 instructions:    1000000 cycles:     426025 heartbeat IPC: 2.34728 cumulative IPC: 2.34728 (Simulation time: 0 hr 0 min 1 sec) 
Heartbeat CPU  0 instructions:    2000002 cycles:     858689 heartbeat IPC: 2.31127 cumulative IPC: 2.32913 (Simulation time: 0 hr 0 min 3 sec) 
Heartbeat CPU  0 instructions:    3000001 cycles:    1291642 heartbeat IPC: 2.30972 cumulative IPC: 2.32263 (Simulation time: 0 hr 0 min 5 sec) 
Heartbeat CPU  0 instructions:    4000000 cycles:    1724297 heartbeat IPC: 2.31131 cumulative IPC: 2.31979 (Simulation time: 0 hr 0 min 6 sec) 
Heartbeat CPU  0 instructions:    5000000 cycles:    2155801 heartbeat IPC: 2.31748 cumulative IPC: 2.31932 (Simulation time: 0 hr 0 min 8 sec) 
Heartbeat CPU  0 instructions:    6000001 cycles:    2583707 heartbeat IPC: 2.33696 cumulative IPC: 2.32225 (Simulation time: 0 hr 0 min 10 sec) 
Heartbeat CPU  0 instructions:    7000002 cycles:    3014019 heartbeat IPC: 2.32390 cumulative IPC: 2.32248 (Simulation time: 0 hr 0 min 11 sec) 
Heartbeat CPU  0 instructions:    8000000 cycles:    3442018 heartbeat IPC: 2.33645 cumulative IPC: 2.32422 (Simulation time: 0 hr 0 min 13 sec) 
Heartbeat CPU  0 instructions:    9000000 cycles:    3872494 heartbeat IPC: 2.32301 cumulative IPC: 2.32408 (Simulation time: 0 hr 0 min 14 sec) 
Heartbeat CPU  0 instructions:   10000000 cycles:    4299755 heartbeat IPC: 2.34049 cumulative IPC: 2.32571 (Simulation time: 0 hr 0 min 16 sec) 

Warmup complete CPU  0 instructions:   10000004 cycles:    4299756 (Simulation time: 0 hr 0 min 16 sec) 

Heartbeat CPU  0 instructions:   11000001 cycles:    5560126 heartbeat IPC: 0.79342 cumulative IPC: 0.79342 (Simulation time: 0 hr 0 min 18 sec) 
Heartbeat CPU  0 instructions:   12000000 cycles:    6816708 heartbeat IPC: 0.79581 cumulative IPC: 0.79461 (Simulation time: 0 hr 0 min 20 sec) 
Heartbeat CPU  0 instructions:   13000001 cycles:    8109747 heartbeat IPC: 0.77337 cumulative IPC: 0.78740 (Simulation time: 0 hr 0 min 22 sec) 
Heartbeat CPU  0 instructions:   14000001 cycles:    9430062 heartbeat IPC: 0.75740 cumulative IPC: 0.77968 (Simulation time: 0 hr 0 min 24 sec) 
Heartbeat CPU  0 instructions:   15000002 cycles:   10704434 heartbeat IPC: 0.78470 cumulative IPC: 0.78068 (Simulation time: 0 hr 0 min 27 sec) 
Heartbeat CPU  0 instructions:   16000000 cycles:   11969026 heartbeat IPC: 0.79077 cumulative IPC: 0.78234 (Simulation time: 0 hr 0 min 29 sec) 
Heartbeat CPU  0 instructions:   17000000 cycles:   13232142 heartbeat IPC: 0.79169 cumulative IPC: 0.78366 (Simulation time: 0 hr 0 min 31 sec) 
Heartbeat CPU  0 instructions:   18000001 cycles:   14468953 heartbeat IPC: 0.80853 cumulative IPC: 0.78669 (Simulation time: 0 hr 0 min 33 sec) 
Heartbeat CPU  0 instructions:   19000001 cycles:   15681474 heartbeat IPC: 0.82473 cumulative IPC: 0.79074 (Simulation time: 0 hr 0 min 35 sec) 
Heartbeat CPU  0 instructions:   20000000 cycles:   16948415 heartbeat IPC: 0.78930 cumulative IPC: 0.79060 (Simulation time: 0 hr 0 min 37 sec) 
Heartbeat CPU  0 instructions:   21000001 cycles:   18273705 heartbeat IPC: 0.75455 cumulative IPC: 0.78718 (Simulation time: 0 hr 0 min 39 sec) 
Heartbeat CPU  0 instructions:   22000001 cycles:   19533659 heartbeat IPC: 0.79368 cumulative IPC: 0.78772 (Simulation time: 0 hr 0 min 41 sec) 
Heartbeat CPU  0 instructions:   23000001 cycles:   20811086 heartbeat IPC: 0.78282 cumulative IPC: 0.78734 (Simulation time: 0 hr 0 min 44 sec) 
Heartbeat CPU  0 instructions:   24000000 cycles:   22091889 heartbeat IPC: 0.78076 cumulative IPC: 0.78686 (Simulation time: 0 hr 0 min 46 sec) 
Heartbeat CPU  0 instructions:   25000000 cycles:   23354313 heartbeat IPC: 0.79213 cumulative IPC: 0.78721 (Simulation time: 0 hr 0 min 48 sec) 
Heartbeat CPU  0 instructions:   26000003 cycles:   24634493 heartbeat IPC: 0.78114 cumulative IPC: 0.78683 (Simulation time: 0 hr 0 min 50 sec) 
Heartbeat CPU  0 instructions:   27000000 cycles:   25900970 heartbeat IPC: 0.78959 cumulative IPC: 0.78699 (Simulation time: 0 hr 0 min 52 sec) 
Heartbeat CPU  0 instructions:   28000000 cycles:   27182981 heartbeat IPC: 0.78002 cumulative IPC: 0.78660 (Simulation time: 0 hr 0 min 54 sec) 
Heartbeat CPU  0 instructions:   29000002 cycles:   28439412 heartbeat IPC: 0.79591 cumulative IPC: 0.78709 (Simulation time: 0 hr 0 min 56 sec) 
Heartbeat CPU  0 instructions:   30000002 cycles:   29697624 heartbeat IPC: 0.79478 cumulative IPC: 0.78747 (Simulation time: 0 hr 0 min 58 sec) 
Heartbeat CPU  0 instructions:   31000000 cycles:   30928904 heartbeat IPC: 0.81216 cumulative IPC: 0.78861 (Simulation time: 0 hr 1 min 0 sec) 
Heartbeat CPU  0 instructions:   32000000 cycles:   32255530 heartbeat IPC: 0.75379 cumulative IPC: 0.78696 (Simulation time: 0 hr 1 min 3 sec) 
Heartbeat CPU  0 instructions:   33000003 cycles:   33543586 heartbeat IPC: 0.77637 cumulative IPC: 0.78649 (Simulation time: 0 hr 1 min 5 sec) 
Heartbeat CPU  0 instructions:   34000003 cycles:   34860758 heartbeat IPC: 0.75920 cumulative IPC: 0.78531 (Simulation time: 0 hr 1 min 7 sec) 
Heartbeat CPU  0 instructions:   35000002 cycles:   36147444 heartbeat IPC: 0.77719 cumulative IPC: 0.78499 (Simulation time: 0 hr 1 min 9 sec) 
Heartbeat CPU  0 instructions:   36000000 cycles:   37436922 heartbeat IPC: 0.77551 cumulative IPC: 0.78462 (Simulation time: 0 hr 1 min 11 sec) 
Heartbeat CPU  0 instructions:   37000000 cycles:   38734527 heartbeat IPC: 0.77065 cumulative IPC: 0.78409 (Simulation time: 0 hr 1 min 13 sec) 
Heartbeat CPU  0 instructions:   38000002 cycles:   40024858 heartbeat IPC: 0.77500 cumulative IPC: 0.78376 (Simulation time: 0 hr 1 min 15 sec) 
Heartbeat CPU  0 instructions:   39000001 cycles:   41285120 heartbeat IPC: 0.79348 cumulative IPC: 0.78409 (Simulation time: 0 hr 1 min 17 sec) 
Heartbeat CPU  0 instructions:   40000000 cycles:   42552761 heartbeat IPC: 0.78887 cumulative IPC: 0.78425 (Simulation time: 0 hr 1 min 20 sec) 
Heartbeat CPU  0 instructions:   41000002 cycles:   43852126 heartbeat IPC: 0.76961 cumulative IPC: 0.78377 (Simulation time: 0 hr 1 min 22 sec) 
Heartbeat CPU  0 instructions:   42000003 cycles:   45101213 heartbeat IPC: 0.80059 cumulative IPC: 0.78429 (Simulation time: 0 hr 1 min 24 sec) 
Heartbeat CPU  0 instructions:   43000001 cycles:   46330064 heartbeat IPC: 0.81377 cumulative IPC: 0.78515 (Simulation time: 0 hr 1 min 26 sec) 
Heartbeat CPU  0 instructions:   44000000 cycles:   47618569 heartbeat IPC: 0.77609 cumulative IPC: 0.78488 (Simulation time: 0 hr 1 min 28 sec) 
Heartbeat CPU  0 instructions:   45000000 cycles:   48991902 heartbeat IPC: 0.72816 cumulative IPC: 0.78314 (Simulation time: 0 hr 1 min 30 sec) 
Heartbeat CPU  0 instructions:   46000000 cycles:   50263267 heartbeat IPC: 0.78656 cumulative IPC: 0.78323 (Simulation time: 0 hr 1 min 32 sec) 
Heartbeat CPU  0 instructions:   47000001 cycles:   51552380 heartbeat IPC: 0.77573 cumulative IPC: 0.78303 (Simulation time: 0 hr 1 min 34 sec) 
Heartbeat CPU  0 instructions:   48000000 cycles:   52828463 heartbeat IPC: 0.78365 cumulative IPC: 0.78304 (Simulation time: 0 hr 1 min 37 sec) 
Heartbeat CPU  0 instructions:   49000000 cycles:   54097959 heartbeat IPC: 0.78771 cumulative IPC: 0.78316 (Simulation time: 0 hr 1 min 39 sec) 
Heartbeat CPU  0 instructions:   50000002 cycles:   55451876 heartbeat IPC: 0.73860 cumulative IPC: 0.78198 (Simulation time: 0 hr 1 min 41 sec) 
Heartbeat CPU  0 instructions:   51000000 cycles:   56698893 heartbeat IPC: 0.80191 cumulative IPC: 0.78246 (Simulation time: 0 hr 1 min 43 sec) 
Heartbeat CPU  0 instructions:   52000000 cycles:   58052349 heartbeat IPC: 0.73885 cumulative IPC: 0.78136 (Simulation time: 0 hr 1 min 45 sec) 
Heartbeat CPU  0 instructions:   53000002 cycles:   59312148 heartbeat IPC: 0.79378 cumulative IPC: 0.78164 (Simulation time: 0 hr 1 min 47 sec) 
Heartbeat CPU  0 instructions:   54000003 cycles:   60564510 heartbeat IPC: 0.79849 cumulative IPC: 0.78202 (Simulation time: 0 hr 1 min 49 sec) 
Heartbeat CPU  0 instructions:   55000001 cycles:   61790431 heartbeat IPC: 0.81571 cumulative IPC: 0.78274 (Simulation time: 0 hr 1 min 51 sec) 
Heartbeat CPU  0 instructions:   56000000 cycles:   63047745 heartbeat IPC: 0.79535 cumulative IPC: 0.78301 (Simulation time: 0 hr 1 min 54 sec) 
Heartbeat CPU  0 instructions:   57000003 cycles:   64442476 heartbeat IPC: 0.71699 cumulative IPC: 0.78147 (Simulation time: 0 hr 1 min 56 sec) 
Heartbeat CPU  0 instructions:   58000001 cycles:   65800289 heartbeat IPC: 0.73648 cumulative IPC: 0.78048 (Simulation time: 0 hr 1 min 58 sec) 
Heartbeat CPU  0 instructions:   59000001 cycles:   67158660 heartbeat IPC: 0.73618 cumulative IPC: 0.77952 (Simulation time: 0 hr 2 min 0 sec) 
Heartbeat CPU  0 instructions:   60000000 cycles:   68472597 heartbeat IPC: 0.76107 cumulative IPC: 0.77915 (Simulation time: 0 hr 2 min 2 sec) 
Finished CPU 0 instructions: 50000000 cycles: 64172865 cumulative IPC: 0.77915 (Simulation time: 0 hr 2 min 2 sec) 

ChampSim completed all CPUs

[ROI Statistics]
Core_0_instructions 50000000
Core_0_cycles 64172865
Core_0_IPC 0.77915

Core_0_branch_prediction_accuracy 99.97672
Core_0_branch_MPKI 0.06030
Core_0_average_ROB_occupancy_at_mispredict 157.12637

Core_0_L1D_total_access 9478961
Core_0_L1D_total_hit 8221405
Core_0_L1D_total_miss 1257556
Core_0_L1D_loads 8593098
Core_0_L1D_load_hit 7335542
Core_0_L1D_load_miss 1257556
Core_0_L1D_RFOs 885863
Core_0_L1D_RFO_hit 885863
Core_0_L1D_RFO_miss 0
Core_0_L1D_prefetches 0
Core_0_L1D_prefetch_hit 0
Core_0_L1D_prefetch_miss 0
Core_0_L1D_writebacks 0
Core_0_L1D_writeback_hit 0
Core_0_L1D_writeback_miss 0
Core_0_L1D_prefetch_requested 0
Core_0_L1D_prefetch_dropped 0
Core_0_L1D_prefetch_issued 0
Core_0_L1D_prefetch_filled 0
Core_0_L1D_prefetch_useful 0
Core_0_L1D_prefetch_useless 0
Core_0_L1D_prefetch_late 0
Core_0_L1D_average_miss_latency 21.96503

Core_0_L1D_rq_access 14945306
Core_0_L1D_rq_forward 0
Core_0_L1D_rq_merged 6054011
Core_0_L1D_rq_to_cache 8891295
Core_0_L1D_rq_full 0

Core_0_L1D_wq_access 885863
Core_0_L1D_wq_forward 0
Core_0_L1D_wq_merged 0
Core_0_L1D_wq_to_cache 885863
Core_0_L1D_wq_full 0

Core_0_L1D_pq_access 0
Core_0_L1D_pq_forward 0
Core_0_L1D_pq_merged 0
Core_0_L1D_pq_to_cache 0
Core_0_L1D_pq_full 0

Core_0_L1D_acc_epochs 66843
Core_0_L1D_acc_level_0 66843
Core_0_L1D_acc_level_1 0
Core_0_L1D_acc_level_2 0
Core_0_L1D_acc_level_3 0
Core_0_L1D_acc_level_4 0
Core_0_L1D_acc_level_5 0
Core_0_L1D_acc_level_6 0
Core_0_L1D_acc_level_7 0
Core_0_L1D_acc_level_8 0
Core_0_L1D_acc_level_9 0

Core_0_L1I_total_access 18008721
Core_0_L1I_total_hit 18008721
Core_0_L1I_total_miss 0
Core_0_L1I_loads 18008721
Core_0_L1I_load_hit 18008721
Core_0_L1I_load_miss 0
Core_0_L1I_RFOs 0
Core_0_L1I_RFO_hit 0
Core_0_L1I_RFO_miss 0
Core_0_L1I_prefetches 0
Core_0_L1I_prefetch_hit 0
Core_0_L1I_prefetch_miss 0
Core_0_L1I_writebacks 0
Core_0_L1I_writeback_hit 0
Core_0_L1I_writeback_miss 0
Core_0_L1I_prefetch_requested 0
Core_0_L1I_prefetch_dropped 0
Core_0_L1I_prefetch_issued 0
Core_0_L1I_prefetch_filled 0
Core_0_L1I_prefetch_useful 0
Core_0_L1I_prefetch_useless 0
Core_0_L1I_prefetch_late 0
Core_0_L1I_average_miss_latency -nan

Core_0_L1I_rq_access 50000006
Core_0_L1I_rq_forward 0
Core_0_L1I_rq_merged 31991285
Core_0_L1I_rq_to_cache 18008721
Core_0_L1I_rq_full 0

Core_0_L1I_wq_access 0
Core_0_L1I_wq_forward 0
Core_0_L1I_wq_merged 0
Core_0_L1I_wq_to_cache 0
Core_0_L1I_wq_full 0

Core_0_L1I_pq_access 0
Core_0_L1I_pq_forward 0
Core_0_L1I_pq_merged 0
Core_0_L1I_pq_to_cache 0
Core_0_L1I_pq_full 0

Core_0_L1I_acc_epochs 66843
Core_0_L1I_acc_level_0 66843
Core_0_L1I_acc_level_1 0
Core_0_L1I_acc_level_2 0
Core_0_L1I_acc_level_3 0
Core_0_L1I_acc_level_4 0
Core_0_L1I_acc_level_5 0
Core_0_L1I_acc_level_6 0
Core_0_L1I_acc_level_7 0
Core_0_L1I_acc_level_8 0
Core_0_L1I_acc_level_9 0

Core_0_L2C_total_access 2374810
Core_0_L2C_total_hit 1113439
Core_0_L2C_total_miss 1261371
Core_0_L2C_loads 1257556
Core_0_L2C_load_hit 1113399
Core_0_L2C_load_miss 144157
Core_0_L2C_RFOs 0
Core_0_L2C_RFO_hit 0
Core_0_L2C_RFO_miss 0
Core_0_L2C_prefetches 1117214
Core_0_L2C_prefetch_hit 0
Core_0_L2C_prefetch_miss 1117214
Core_0_L2C_writebacks 40
Core_0_L2C_writeback_hit 40
Core_0_L2C_writeback_miss 0
Core_0_L2C_prefetch_requested 1835298
Core_0_L2C_prefetch_dropped 0
Core_0_L2C_prefetch_issued 1835298
Core_0_L2C_prefetch_filled 1352644
Core_0_L2C_prefetch_useful 1331467
Core_0_L2C_prefetch_useless 21144
Core_0_L2C_prefetch_late 346
Core_0_L2C_average_miss_latency 68.73403

Core_0_L2C_rq_access 1257556
Core_0_L2C_rq_forward 0
Core_0_L2C_rq_merged 0
Core_0_L2C_rq_to_cache 1257556
Core_0_L2C_rq_full 0

Core_0_L2C_wq_access 40
Core_0_L2C_wq_forward 0
Core_0_L2C_wq_merged 0
Core_0_L2C_wq_to_cache 40
Core_0_L2C_wq_full 0

Core_0_L2C_pq_access 1835298
Core_0_L2C_pq_forward 0
Core_0_L2C_pq_merged 23919
Core_0_L2C_pq_to_cache 1811379
Core_0_L2C_pq_full 0

Core_0_L2C_acc_epochs 66843
Core_0_L2C_acc_level_0 383
Core_0_L2C_acc_level_1 66
Core_0_L2C_acc_level_2 74
Core_0_L2C_acc_level_3 73
Core_0_L2C_acc_level_4 114
Core_0_L2C_acc_level_5 143
Core_0_L2C_acc_level_6 189
Core_0_L2C_acc_level_7 1148
Core_0_L2C_acc_level_8 5441
Core_0_L2C_acc_level_9 59212

Core_0_LLC_total_access 1629041
Core_0_LLC_total_hit 1120598
Core_0_LLC_total_miss 508443
Core_0_LLC_loads 143895
Core_0_LLC_load_hit 84725
Core_0_LLC_load_miss 59170
Core_0_LLC_RFOs 0
Core_0_LLC_RFO_hit 0
Core_0_LLC_RFO_miss 0
Core_0_LLC_prefetches 1485111
Core_0_LLC_prefetch_hit 1035838
Core_0_LLC_prefetch_miss 449273
Core_0_LLC_writebacks 35
Core_0_LLC_writeback_hit 35
Core_0_LLC_writeback_miss 0
Core_0_LLC_prefetch_requested 0
Core_0_LLC_prefetch_dropped 0
Core_0_LLC_prefetch_issued 0
Core_0_LLC_prefetch_filled 596178
Core_0_LLC_prefetch_useful 8024
Core_0_LLC_prefetch_useless 562262
Core_0_LLC_prefetch_late 0
Core_0_LLC_average_miss_latency 102.36625

Core_0_LLC_rq_access 143895
Core_0_LLC_rq_forward 0
Core_0_LLC_rq_merged 0
Core_0_LLC_rq_to_cache 143895
Core_0_LLC_rq_full 0

Core_0_LLC_wq_access 35
Core_0_LLC_wq_forward 0
Core_0_LLC_wq_merged 0
Core_0_LLC_wq_to_cache 35
Core_0_LLC_wq_full 0

Core_0_LLC_pq_access 1810354
Core_0_LLC_pq_forward 0
Core_0_LLC_pq_merged 1129
Core_0_LLC_pq_to_cache 1809225
Core_0_LLC_pq_full 0

Core_0_LLC_acc_epochs 66868
Core_0_LLC_acc_level_0 62755
Core_0_LLC_acc_level_1 1850
Core_0_LLC_acc_level_2 1094
Core_0_LLC_acc_level_3 191
Core_0_LLC_acc_level_4 35
Core_0_LLC_acc_level_5 694
Core_0_LLC_acc_level_6 48
Core_0_LLC_acc_level_7 41
Core_0_LLC_acc_level_8 10
Core_0_LLC_acc_level_9 150

Core_0_major_page_fault 0
Core_0_minor_page_fault 1296

[MLOP] History of tracked zone:
IIIIIIIIIIIIIIIIIIIIIIIIIIIIIIIIIIIIIIIIIIIIIIIIIIIIIIIIIIIIIIII
AIIIII2IIIII2IIIII4IIIII4IIIIIIIIIIIIIIIIIIIIIIIIIIIIIIIIIIIIIII
AAIIII22IIII22IIII44IIII44IIIIIIIIIIIIIIIIIIIIIIIIIIIIIIIIIIIIII
AAAIII222III222III444III444IIIIIIIIIIIIIIIIIIIIIIIIIIIIIIIIIIIII
AAAAII2222II2222II4444II4444IIIIIIIIIIIIIIIIIIIIIIIIIIIIIIIIIIII
AAAAAI22222I22222I44444I44444IIIIIIIIIIIIIIIIIIIIIIIIIIIIIIIIIII
AAAAAA222222222222444444444444IIIIIIIIIIIIIIIIIIIIIIIIIIIIIIIIII
AAAAAAA222222222222444444444444IIIIIIIIIIIIIIIIIIIIIIIIIIIIIIIII
AAAAAAAA222222222222444444444444IIIIIIIIIIIIIIIIIIIIIIIIIIIIIIII
AAAAAAAAA222222222222444444444444IIIIIIIIIIIIIIIIIIIIIIIIIIIIIII
AAAAAAAAAA222222222222444444444444IIIIIIIIIIIIIIIIIIIIIIIIIIIIII
AAAAAAAAAAA222222222222444444444444IIIIIIIIIIIIIIIIIIIIIIIIIIIII
AAAAAAAAAAAA222222222222444444444444IIIIIIIIIIIIIIIIIIIIIIIIIIII
AAAAAAAAAAAAA222222222222444444444444IIIIIIIIIIIIIIIIIIIIIIIIIII
AAAAAAAAAAAAAA222222222222444444444444IIIIIIIIIIIIIIIIIIIIIIIIII
AAAAAAAAAAAAAAA222222222222444444444444IIIIIIIIIIIIIIIIIIIIIIIII
AAAAAAAAAAAAAAAA222222222222444444444444IIIIIIIIIIIIIIIIIIIIIIII
AAAAAAAAAAAAAAAAA222222222222444444444444IIIIIIIIIIIIIIIIIIIIIII
AAAAAAAAAAAAAAAAAA222222222222444444444444IIIIIIIIIIIIIIIIIIIIII
AAAAAAAAAAAAAAAAAAA222222222222444444444444IIIIIIIIIIIIIIIIIIIII
AAAAAAAAAAAAAAAAAAAA222222222222444444444444IIIIIIIIIIIIIIIIIIII
AAAAAAAAAAAAAAAAAAAAA222222222222444444444444IIIIIIIIIIIIIIIIIII
AAAAAAAAAAAAAAAAAAAAAA222222222222444444444444IIIIIIIIIIIIIIIIII
AAAAAAAAAAAAAAAAAAAAAAA222222222222444444444444IIIIIIIIIIIIIIIII
AAAAAAAAAAAAAAAAAAAAAAAA222222222222444444444444IIIIIIIIIIIIIIII
AAAAAAAAAAAAAAAAAAAAAAAAA222222222222444444444444IIIIIIIIIIIIIII
AAAAAAAAAAAAAAAAAAAAAAAAAA222222222222444444444444IIIIIIIIIIIIII
AAAAAAAAAAAAAAAAAAAAAAAAAAA222222222222444444444444IIIIIIIIIIIII
AAAAAAAAAAAAAAAAAAAAAAAAAAAA222222222222444444444444IIIIIIIIIIII
AAAAAAAAAAAAAAAAAAAAAAAAAAAAA222222222222444444444444IIIIIIIIIII
AAAAAAAAAAAAAAAAAAAAAAAAAAAAAA222222222222444444444444IIIIIIIIII
AAAAAAAAAAAAAAAAAAAAAAAAAAAAAAA222222222222444444444444IIIIIIIII
AAAAAAAAAAAAAAAAAAAAAAAAAAAAAAAA222222222222444444444444IIIIIIII
AAAAAAAAAAAAAAAAAAAAAAAAAAAAAAAAA222222222222444444444444IIIIIII
AAAAAAAAAAAAAAAAAAAAAAAAAAAAAAAAAA222222222222444444444444IIIIII
AAAAAAAAAAAAAAAAAAAAAAAAAAAAAAAAAAA222222222222444444444444IIIII
AAAAAAAAAAAAAAAAAAAAAAAAAAAAAAAAAAAA222222222222444444444444IIII
AAAAAAAAAAAAAAAAAAAAAAAAAAAAAAAAAAAAA222222222222444444444444III
AAAAAAAAAAAAAAAAAAAAAAAAAAAAAAAAAAAAAA222222222222444444444444II
AAAAAAAAAAAAAAAAAAAAAAAAAAAAAAAAAAAAAAA222222222222444444444444I
AAAAAAAAAAAAAAAAAAAAAAAAAAAAAAAAAAAAAAAA222222222222444444444444
AAAAAAAAAAAAAAAAAAAAAAAAAAAAAAAAAAAAAAAAA22222222222244444444444
AAAAAAAAAAAAAAAAAAAAAAAAAAAAAAAAAAAAAAAAAA2222222222224444444444
AAAAAAAAAAAAAAAAAAAAAAAAAAAAAAAAAAAAAAAAAAA222222222222444444444
AAAAAAAAAAAAAAAAAAAAAAAAAAAAAAAAAAAAAAAAAAAA22222222222244444444
AAAAAAAAAAAAAAAAAAAAAAAAAAAAAAAAAAAAAAAAAAAAA2222222222224444444
AAAAAAAAAAAAAAAAAAAAAAAAAAAAAAAAAAAAAAAAAAAAAA222222222222444444
AAAAAAAAAAAAAAAAAAAAAAAAAAAAAAAAAAAAAAAAAAAAAAA22222222222244444
AAAAAAAAAAAAAAAAAAAAAAAAAAAAAAAAAAAAAAAAAAAAAAAA2222222222224444
AAAAAAAAAAAAAAAAAAAAAAAAAAAAAAAAAAAAAAAAAAAAAAAAA222222222222444
AAAAAAAAAAAAAAAAAAAAAAAAAAAAAAAAAAAAAAAAAAAAAAAAAA22222222222244
AAAAAAAAAAAAAAAAAAAAAAAAAAAAAAAAAAAAAAAAAAAAAAAAAAA2222222222224
AAAAAAAAAAAAAAAAAAAAAAAAAAAAAAAAAAAAAAAAAAAAAAAAAAAA222222222222
AAAAAAAAAAAAAAAAAAAAAAAAAAAAAAAAAAAAAAAAAAAAAAAAAAAAA22222222222
AAAAAAAAAAAAAAAAAAAAAAAAAAAAAAAAAAAAAAAAAAAAAAAAAAAAAA2222222222
AAAAAAAAAAAAAAAAAAAAAAAAAAAAAAAAAAAAAAAAAAAAAAAAAAAAAAA222222222
AAAAAAAAAAAAAAAAAAAAAAAAAAAAAAAAAAAAAAAAAAAAAAAAAAAAAAAA22222222
AAAAAAAAAAAAAAAAAAAAAAAAAAAAAAAAAAAAAAAAAAAAAAAAAAAAAAAAA2222222
AAAAAAAAAAAAAAAAAAAAAAAAAAAAAAAAAAAAAAAAAAAAAAAAAAAAAAAAAA222222
AAAAAAAAAAAAAAAAAAAAAAAAAAAAAAAAAAAAAAAAAAAAAAAAAAAAAAAAAAA22222
AAAAAAAAAAAAAAAAAAAAAAAAAAAAAAAAAAAAAAAAAAAAAAAAAAAAAAAAAAAA2222
AAAAAAAAAAAAAAAAAAAAAAAAAAAAAAAAAAAAAAAAAAAAAAAAAAAAAAAAAAAAA222
AAAAAAAAAAAAAAAAAAAAAAAAAAAAAAAAAAAAAAAAAAAAAAAAAAAAAAAAAAAAAA22
AAAAAAAAAAAAAAAAAAAAAAAAAAAAAAAAAAAAAAAAAAAAAAAAAAAAAAAAAAAAAAA2
AAAAAAAAAAAAAAAAAAAAAAAAAAAAAAAAAAAAAAAAAAAAAAAAAAAAAAAAAAAAAAAA
AAAAAAAAAAAAAAAAAAAAIAAAAAAAAAAAAAAAAAAAAAAAAAAAAAAAAAAAAAAAAAAA
AAAAAAAAAAAAAAAAAAAAIIAAAAAAAAAAAAAAAAAAAAAAAAAAAAAAAAAAAAAAAAAA
AAAAAAAAAAAAAAAAAAAAIIIAAAAAAAAAAAAAAAAAAAAAAAAAAAAAAAAAAAAAAAAA
AAAAAAAAAAAAAAAAAAAAIIIIAAAAAAAAAAAAAAAAAAAAAAAAAAAAAAAAAAAAAAAA
AAAAAAAAAAAAAAAAAAAAIIIIIAAAAAAAAAAAAAAAAAAAAAAAAAAAAAAAAAAAAAAA
AAAAAAAAAAAAAAAAAAAAIIIIIIAAAAAAAAAAAAAAAAAAAAAAAAAAAAAAAAAAAAAA
AAAAAAAAAAAAAAAAAAAAIIIIIIIAAAAAAAAAAAAAAAAAAAAAAAAAAAAAAAAAAAAA
AAAAAAAAAAAAAAAAAAAAIIIIIIIIAAAAAAAAAAAAAAAAAAAAAAAAAAAAAAAAAAAA
AAAAAAAAAAAAAAAAAAAAIIIIIIIIIAAAAAAAAAAAAAAAAAAAAAAAAAAAAAAAAAAA
AAAAAAAAAAAAAAAAAAAAIIIIIIIIIIAAAAAAAAAAAAAAAAAAAAAAAAAAAAAAAAAA
AAAAAAAAAAAAAAAAAAAAIIIIIIIIIIIAAAAAAAAAAAAAAAAAAAAAAAAAAAAAAAAA
AAAAAAAAAAAAAAAAAAAAIIIIIIIIIIIIAAAAAAAAAAAAAAAAAAAAAAAAAAAAAAAA
AAAAAAAAAAAAAAAAAAAAIIIIIIIIIIIIIAAAAAAAAAAAAAAAAAAAAAAAAAAAAAAA
AAAAAAAAAAAAAAAAAAAAIIIIIIIIIIIIIIAAAAAAAAAAAAAAAAAAAAAAAAAAAAAA
AAAAAAAAAAAAAAAAAAAAIIIIIIIIIIIIIIIAAAAAAAAAAAAAAAAAAAAAAAAAAAAA
AAAAAAAAAAAAAAAAAAAAIIIIIIIIIIIIIIIIAAAAAAAAAAAAAAAAAAAAAAAAAAAA
AAAAAAAAAAAAAAAAAAAAIIIIIIIIIIIIIIIIIAAAAAAAAAAAAAAAAAAAAAAAAAAA
AAAAAAAAAAAAAAAAAAAAIIIIIIIIIIIIIIIIIIAAAAAAAAAAAAAAAAAAAAAAAAAA
AAAAAAAAAAAAAAAAAAAAIIIIIIIIIIIIIIIIIIIAAAAAAAAAAAAAAAAAAAAAAAAA
AAAAAAAAAAAAAAAAAAAAIIIIIIIIIIIIIIIIIIIIAAAAAAAAAAAAAAAAAAAAAAAA
AAAAAAAAAAAAAAAAAAAAIIIIIIIIIIIIIIIIIIIIIAAAAAAAAAAAAAAAAAAAAAAA
AAAAAAAAAAAAAAAAAAAAIIIIIIIIIIIIIIIIIIIIIIAAAAAAAAAAAAAAAAAAAAAA
AAAAAAAAAAAAAAAAAAAAIIIIIIIIIIIIIIIIIIIIIIIAAAAAAAAAAAAAAAAAAAAA
AAAAAAAAAAAAAAAAAAAAIIIIIIIIIIIIIIIIIIIIIIIIAAAAAAAAAAAAAAAAAAAA
AAAAAAAAAAAAAAAAAAAAIIIIIIIIIIIIIIIIIIIIIIIIIAAAAAAAAAAAAAAAAAAA
AAAAAAAAAAAAAAAAAAAAIIIIIIIIIIIIIIIIIIIIIIIIIIAAAAAAAAAAAAAAAAAA
AAAAAAAAAAAAAAAAAAAAIIIIIIIIIIIIIIIIIIIIIIIIIIIAAAAAAAAAAAAAAAAA
AAAAAAAAAAAAAAAAAAAAIIIIIIIIIIIIIIIIIIIIIIIIIIIIAAAAAAAAAAAAAAAA
AAAAAAAAAAAAAAAAAAAAIIIIIIIIIIIIIIIIIIIIIIIIIIIIIAAAAAAAAAAAAAAA
AAAAAAAAAAAAAAAAAAAAIIIIIIIIIIIIIIIIIIIIIIIIIIIIIIAAAAAAAAAAAAAA
AAAAAAAAAAAAAAAAAAAAIIIIIIIIIIIIIIIIIIIIIIIIIIIIIIIAAAAAAAAAAAAA
AAAAAAAAAAAAAAAAAAAAIIIIIIIIIIIIIIIIIIIIIIIIIIIIIIIIAAAAAAAAAAAA
AAAAAAAAAAAAAAAAAAAAIIIIIIIIIIIIIIIIIIIIIIIIIIIIIIIIIAAAAAAAAAAA
AAAAAAAAAAAAAAAAAAAAIIIIIIIIIIIIIIIIIIIIIIIIIIIIIIIIIIAAAAAAAAAA
AAAAAAAAAAAAAAAAAAAAIIIIIIIIIIIIIIIIIIIIIIIIIIIIIIIIIIIAAAAAAAAA
AAAAAAAAAAAAAAAAAAAAIIIIIIIIIIIIIIIIIIIIIIIIIIIIIIIIIIIIAAAAAAAA
AAAAAAAAAAAAAAAAAAAAIIIIIIIIIIIIIIIIIIIIIIIIIIIIIIIIIIIIIAAAAAAA
AAAAAAAAAAAAAAAAAAAAIIIIIIIIIIIIIIIIIIIIIIIIIIIIIIIIIIIIIIAAAAAA
AAAAAAAAAAAAAAAAAAAAIIIIIIIIIIIIIIIIIIIIIIIIIIIIIIIIIIIIIIIAAAAA
AAAAAAAAAAAAAAAAAAAAIIIIIIIIIIIIIIIIIIIIIIIIIIIIIIIIIIIIIIIIAAAA
AAAAAAAAAAAAAAAAAAAAIIIIIIIIIIIIIIIIIIIIIIIIIIIIIIIIIIIIIIIIIAAA
AAAAAAAAAAAAAAAAAAAAIIIIIIIIIIIIIIIIIIIIIIIIIIIIIIIIIIIIIIIIIIAA
AAAAAAAAAAAAAAAAAAAAIIIIIIIIIIIIIIIIIIIIIIIIIIIIIIIIIIIIIIIIIIIA
AAAAAAAAAAAAAAAAAAAAIIIIIIIIIIIIIIIIIIIIIIIIIIIIIIIIIIIIIIIIIIII
AIAAAAAAAAAAAAAAAAAAIIIIIIIIIIIIIIIIIIIIIIIIIIIIIIIIIIIIIIIIIIII
AIIAAAAAAAAAAAAAAAAAIIIIIIIIIIIIIIIIIIIIIIIIIIIIIIIIIIIIIIIIIIII
AIIIAAAAAAAAAAAAAAAAIIIIIIIIIIIIIIIIIIIIIIIIIIIIIIIIIIIIIIIIIIII
AIIIIAAAAAAAAAAAAAAAIIIIIIIIIIIIIIIIIIIIIIIIIIIIIIIIIIIIIIIIIIII
AIIIIIAAAAAAAAAAAAAAIIIIIIIIIIIIIIIIIIIIIIIIIIIIIIIIIIIIIIIIIIII
AIIIIIIAAAAAAAAAAAAAIIIIIIIIIIIIIIIIIIIIIIIIIIIIIIIIIIIIIIIIIIII
AIIIIIIIAAAAAAAAAAAAIIIIIIIIIIIIIIIIIIIIIIIIIIIIIIIIIIIIIIIIIIII
AIIIIIIIIAAAAAAAAAAAIIIIIIIIIIIIIIIIIIIIIIIIIIIIIIIIIIIIIIIIIIII
AIIIIIIIIIAAAAAAAAAAIIIIIIIIIIIIIIIIIIIIIIIIIIIIIIIIIIIIIIIIIIII
AIIIIIIIIIIAAAAAAAAAIIIIIIIIIIIIIIIIIIIIIIIIIIIIIIIIIIIIIIIIIIII
AIIIIIIIIIIIAAAAAAAAIIIIIIIIIIIIIIIIIIIIIIIIIIIIIIIIIIIIIIIIIIII
AIIIIIIIIIIIIAAAAAAAIIIIIIIIIIIIIIIIIIIIIIIIIIIIIIIIIIIIIIIIIIII
AIIIIIIIIIIIIIAAAAAAIIIIIIIIIIIIIIIIIIIIIIIIIIIIIIIIIIIIIIIIIIII
AIIIIIIIIIIIIIIAAAAAIIIIIIIIIIIIIIIIIIIIIIIIIIIIIIIIIIIIIIIIIIII
AIIIIIIIIIIIIIIIAAAAIIIIIIIIIIIIIIIIIIIIIIIIIIIIIIIIIIIIIIIIIIII
AIIIIIIIIIIIIIIIIAAAIIIIIIIIIIIIIIIIIIIIIIIIIIIIIIIIIIIIIIIIIIII
AIIIIIIIIIIIIIIIIIAAIIIIIIIIIIIIIIIIIIIIIIIIIIIIIIIIIIIIIIIIIIII
AIIIIIIIIIIIIIIIIIIAIIIIIIIIIIIIIIIIIIIIIIIIIIIIIIIIIIIIIIIIIIII
AIIIIIIIIIIIIIIIIIIIIIIIIIIIIIIIIIIIIIIIIIIIIIIIIIIIIIIIIIIIIIII
AIIIII2IIIII2IIIII4IIIII4IIIIIIIIIIIIIIIIIIIIIIIIIIIIIIIIIIIIIII
AAIIII22IIII22IIII44IIII44IIIIIIIIIIIIIIIIIIIIIIIIIIIIIIIIIIIIII
AAAIII222III222III444III444IIIIIIIIIIIIIIIIIIIIIIIIIIIIIIIIIIIII
AAAAII2222II2222II4444II4444IIIIIIIIIIIIIIIIIIIIIIIIIIIIIIIIIIII
AAAAAI22222I22222I44444I44444IIIIIIIIIIIIIIIIIIIIIIIIIIIIIIIIIII
AAAAAA222222222222444444444444IIIIIIIIIIIIIIIIIIIIIIIIIIIIIIIIII
AAAAAAA222222222222444444444444IIIIIIIIIIIIIIIIIIIIIIIIIIIIIIIII
AAAAAAAA222222222222444444444444IIIIIIIIIIIIIIIIIIIIIIIIIIIIIIII
AAAAAAAAA222222222222444444444444IIIIIIIIIIIIIIIIIIIIIIIIIIIIIII
AAAAAAAAAA222222222222444444444444IIIIIIIIIIIIIIIIIIIIIIIIIIIIII
AAAAAAAAAAA222222222222444444444444IIIIIIIIIIIIIIIIIIIIIIIIIIIII
AAAAAAAAAAAA222222222222444444444444IIIIIIIIIIIIIIIIIIIIIIIIIIII
AAAAAAAAAAAAA222222222222444444444444IIIIIIIIIIIIIIIIIIIIIIIIIII
AAAAAAAAAAAAAA222222222222444444444444IIIIIIIIIIIIIIIIIIIIIIIIII
AAAAAAAAAAAAAAA222222222222444444444444IIIIIIIIIIIIIIIIIIIIIIIII
AAAAAAAAAAAAAAAA222222222222444444444444IIIIIIIIIIIIIIIIIIIIIIII
AAAAAAAAAAAAAAAAA222222222222444444444444IIIIIIIIIIIIIIIIIIIIIII
AAAAAAAAAAAAAAAAAA222222222222444444444444IIIIIIIIIIIIIIIIIIIIII
AAAAAAAAAAAAAAAAAAA222222222222444444444444IIIIIIIIIIIIIIIIIIIII
AAAAAAAAAAAAAAAAAAAA222222222222444444444444IIIIIIIIIIIIIIIIIIII
AAAAAAAAAAAAAAAAAAAAA222222222222444444444444IIIIIIIIIIIIIIIIIII
AAAAAAAAAAAAAAAAAAAAAA222222222222444444444444IIIIIIIIIIIIIIIIII
AAAAAAAAAAAAAAAAAAAAAAA222222222222444444444444IIIIIIIIIIIIIIIII
AAAAAAAAAAAAAAAAAAAAAAAA222222222222444444444444IIIIIIIIIIIIIIII
AAAAAAAAAAAAAAAAAAAAAAAAA222222222222444444444444IIIIIIIIIIIIIII
AAAAAAAAAAAAAAAAAAAAAAAAAA222222222222444444444444IIIIIIIIIIIIII
AAAAAAAAAAAAAAAAAAAAAAAAAAA222222222222444444444444IIIIIIIIIIIII
AAAAAAAAAAAAAAAAAAAAAAAAAAAA222222222222444444444444IIIIIIIIIIII
AAAAAAAAAAAAAAAAAAAAAAAAAAAAA222222222222444444444444IIIIIIIIIII
AAAAAAAAAAAAAAAAAAAAAAAAAAAAAA222222222222444444444444IIIIIIIIII
AAAAAAAAAAAAAAAAAAAAAAAAAAAAAAA222222222222444444444444IIIIIIIII
AAAAAAAAAAAAAAAAAAAAAAAAAAAAAAAA222222222222444444444444IIIIIIII
AAAAAAAAAAAAAAAAAAAAAAAAAAAAAAAAA222222222222444444444444IIIIIII
AAAAAAAAAAAAAAAAAAAAAAAAAAAAAAAAAA222222222222444444444444IIIIII
AAAAAAAAAAAAAAAAAAAAAAAAAAAAAAAAAAA222222222222444444444444IIIII
AAAAAAAAAAAAAAAAAAAAAAAAAAAAAAAAAAAA222222222222444444444444IIII
AAAAAAAAAAAAAAAAAAAAAAAAAAAAAAAAAAAAA222222222222444444444444III
AAAAAAAAAAAAAAAAAAAAAAAAAAAAAAAAAAAAAA222222222222444444444444II
AAAAAAAAAAAAAAAAAAAAAAAAAAAAAAAAAAAAAAA222222222222444444444444I
AAAAAAAAAAAAAAAAAAAAAAAAAAAAAAAAAAAAAAAA222222222222444444444444
AAAAAAAAAAAAAAAAAAAAAAAAAAAAAAAAAAAAAAAAA22222222222244444444444
AAAAAAAAAAAAAAAAAAAAAAAAAAAAAAAAAAAAAAAAAA2222222222224444444444
AAAAAAAAAAAAAAAAAAAAAAAAAAAAAAAAAAAAAAAAAAA222222222222444444444
AAAAAAAAAAAAAAAAAAAAAAAAAAAAAAAAAAAAAAAAAAAA22222222222244444444
AAAAAAAAAAAAAAAAAAAAAAAAAAAAAAAAAAAAAAAAAAAAA2222222222224444444
AAAAAAAAAAAAAAAAAAAAAAAAAAAAAAAAAAAAAAAAAAAAAA222222222222444444
AAAAAAAAAAAAAAAAAAAAAAAAAAAAAAAAAAAAAAAAAAAAAAA22222222222244444
AAAAAAAAAAAAAAAAAAAAAAAAAAAAAAAAAAAAAAAAAAAAAAAA2222222222224444
AAAAAAAAAAAAAAAAAAAAAAAAAAAAAAAAAAAAAAAAAAAAAAAAA222222222222444
AAAAAAAAAAAAAAAAAAAAAAAAAAAAAAAAAAAAAAAAAAAAAAAAAA22222222222244
AAAAAAAAAAAAAAAAAAAAAAAAAAAAAAAAAAAAAAAAAAAAAAAAAAA2222222222224
AAAAAAAAAAAAAAAAAAAAAAAAAAAAAAAAAAAAAAAAAAAAAAAAAAAA222222222222
AAAAAAAAAAAAAAAAAAAAAAAAAAAAAAAAAAAAAAAAAAAAAAAAAAAAA22222222222
AAAAAAAAAAAAAAAAAAAAAAAAAAAAAAAAAAAAAAAAAAAAAAAAAAAAAA2222222222
AAAAAAAAAAAAAAAAAAAAAAAAAAAAAAAAAAAAAAAAAAAAAAAAAAAAAAA222222222
AAAAAAAAAAAAAAAAAAAAAAAAAAAAAAAAAAAAAAAAAAAAAAAAAAAAAAAA22222222
AAAAAAAAAAAAAAAAAAAAAAAAAAAAAAAAAAAAAAAAAAAAAAAAAAAAAAAAA2222222
AAAAAAAAAAAAAAAAAAAAAAAAAAAAAAAAAAAAAAAAAAAAAAAAAAAAAAAAAA222222
AAAAAAAAAAAAAAAAAAAAAAAAAAAAAAAAAAAAAAAAAAAAAAAAAAAAAAAAAAA22222
AAAAAAAAAAAAAAAAAAAAAAAAAAAAAAAAAAAAAAAAAAAAAAAAAAAAAAAAAAAA2222
AAAAAAAAAAAAAAAAAAAAAAAAAAAAAAAAAAAAAAAAAAAAAAAAAAAAAAAAAAAAA222
AAAAAAAAAAAAAAAAAAAAAAAAAAAAAAAAAAAAAAAAAAAAAAAAAAAAAAAAAAAAAA22
AAAAAAAAAAAAAAAAAAAAAAAAAAAAAAAAAAAAAAAAAAAAAAAAAAAAAAAAAAAAAAA2
AAAAAAAAAAAAAAAAAAAAAAAAAAAAAAAAAAAAAAAAAAAAAAAAAAAAAAAAAAAAAAAA
AAAAAAAAAAAAAAAAAAAAIAAAAAAAAAAAAAAAAAAAAAAAAAAAAAAAAAAAAAAAAAAA
AAAAAAAAAAAAAAAAAAAAIIAAAAAAAAAAAAAAAAAAAAAAAAAAAAAAAAAAAAAAAAAA
AAAAAAAAAAAAAAAAAAAAIIIAAAAAAAAAAAAAAAAAAAAAAAAAAAAAAAAAAAAAAAAA
AAAAAAAAAAAAAAAAAAAAIIIIAAAAAAAAAAAAAAAAAAAAAAAAAAAAAAAAAAAAAAAA
AAAAAAAAAAAAAAAAAAAAIIIIIAAAAAAAAAAAAAAAAAAAAAAAAAAAAAAAAAAAAAAA
AAAAAAAAAAAAAAAAAAAAIIIIIIAAAAAAAAAAAAAAAAAAAAAAAAAAAAAAAAAAAAAA
AAAAAAAAAAAAAAAAAAAAIIIIIIIAAAAAAAAAAAAAAAAAAAAAAAAAAAAAAAAAAAAA
AAAAAAAAAAAAAAAAAAAAIIIIIIIIAAAAAAAAAAAAAAAAAAAAAAAAAAAAAAAAAAAA
AAAAAAAAAAAAAAAAAAAAIIIIIIIIIAAAAAAAAAAAAAAAAAAAAAAAAAAAAAAAAAAA
AAAAAAAAAAAAAAAAAAAAIIIIIIIIIIAAAAAAAAAAAAAAAAAAAAAAAAAAAAAAAAAA
AAAAAAAAAAAAAAAAAAAAIIIIIIIIIIIAAAAAAAAAAAAAAAAAAAAAAAAAAAAAAAAA
AAAAAAAAAAAAAAAAAAAAIIIIIIIIIIIIAAAAAAAAAAAAAAAAAAAAAAAAAAAAAAAA
AAAAAAAAAAAAAAAAAAAAIIIIIIIIIIIIIAAAAAAAAAAAAAAAAAAAAAAAAAAAAAAA
AAAAAAAAAAAAAAAAAAAAIIIIIIIIIIIIIIAAAAAAAAAAAAAAAAAAAAAAAAAAAAAA
AAAAAAAAAAAAAAAAAAAAIIIIIIIIIIIIIIIAAAAAAAAAAAAAAAAAAAAAAAAAAAAA
AAAAAAAAAAAAAAAAAAAAIIIIIIIIIIIIIIIIAAAAAAAAAAAAAAAAAAAAAAAAAAAA
AAAAAAAAAAAAAAAAAAAAIIIIIIIIIIIIIIIIIAAAAAAAAAAAAAAAAAAAAAAAAAAA
AAAAAAAAAAAAAAAAAAAAIIIIIIIIIIIIIIIIIIAAAAAAAAAAAAAAAAAAAAAAAAAA
AAAAAAAAAAAAAAAAAAAAIIIIIIIIIIIIIIIIIIIAAAAAAAAAAAAAAAAAAAAAAAAA
AAAAAAAAAAAAAAAAAAAAIIIIIIIIIIIIIIIIIIIIAAAAAAAAAAAAAAAAAAAAAAAA
AAAAAAAAAAAAAAAAAAAAIIIIIIIIIIIIIIIIIIIIIAAAAAAAAAAAAAAAAAAAAAAA
AAAAAAAAAAAAAAAAAAAAIIIIIIIIIIIIIIIIIIIIIIAAAAAAAAAAAAAAAAAAAAAA
AAAAAAAAAAAAAAAAAAAAIIIIIIIIIIIIIIIIIIIIIIIAAAAAAAAAAAAAAAAAAAAA
AAAAAAAAAAAAAAAAAAAAIIIIIIIIIIIIIIIIIIIIIIIIAAAAAAAAAAAAAAAAAAAA
AAAAAAAAAAAAAAAAAAAAIIIIIIIIIIIIIIIIIIIIIIIIIAAAAAAAAAAAAAAAAAAA
AAAAAAAAAAAAAAAAAAAAIIIIIIIIIIIIIIIIIIIIIIIIIIAAAAAAAAAAAAAAAAAA
AAAAAAAAAAAAAAAAAAAAIIIIIIIIIIIIIIIIIIIIIIIIIIIAAAAAAAAAAAAAAAAA
AAAAAAAAAAAAAAAAAAAAIIIIIIIIIIIIIIIIIIIIIIIIIIIIAAAAAAAAAAAAAAAA
AAAAAAAAAAAAAAAAAAAAIIIIIIIIIIIIIIIIIIIIIIIIIIIIIAAAAAAAAAAAAAAA
AAAAAAAAAAAAAAAAAAAAIIIIIIIIIIIIIIIIIIIIIIIIIIIIIIAAAAAAAAAAAAAA
AAAAAAAAAAAAAAAAAAAAIIIIIIIIIIIIIIIIIIIIIIIIIIIIIIIAAAAAAAAAAAAA
AAAAAAAAAAAAAAAAAAAAIIIIIIIIIIIIIIIIIIIIIIIIIIIIIIIIAAAAAAAAAAAA
AAAAAAAAAAAAAAAAAAAAIIIIIIIIIIIIIIIIIIIIIIIIIIIIIIIIIAAAAAAAAAAA
AAAAAAAAAAAAAAAAAAAAIIIIIIIIIIIIIIIIIIIIIIIIIIIIIIIIIIAAAAAAAAAA
AAAAAAAAAAAAAAAAAAAAIIIIIIIIIIIIIIIIIIIIIIIIIIIIIIIIIIIAAAAAAAAA
AAAAAAAAAAAAAAAAAAAAIIIIIIIIIIIIIIIIIIIIIIIIIIIIIIIIIIIIAAAAAAAA
AAAAAAAAAAAAAAAAAAAAIIIIIIIIIIIIIIIIIIIIIIIIIIIIIIIIIIIIIAAAAAAA
AAAAAAAAAAAAAAAAAAAAIIIIIIIIIIIIIIIIIIIIIIIIIIIIIIIIIIIIIIAAAAAA
AAAAAAAAAAAAAAAAAAAAIIIIIIIIIIIIIIIIIIIIIIIIIIIIIIIIIIIIIIIAAAAA
AAAAAAAAAAAAAAAAAAAAIIIIIIIIIIIIIIIIIIIIIIIIIIIIIIIIIIIIIIIIAAAA
AAAAAAAAAAAAAAAAAAAAIIIIIIIIIIIIIIIIIIIIIIIIIIIIIIIIIIIIIIIIIAAA
AAAAAAAAAAAAAAAAAAAAIIIIIIIIIIIIIIIIIIIIIIIIIIIIIIIIIIIIIIIIIIAA
AAAAAAAAAAAAAAAAAAAAIIIIIIIIIIIIIIIIIIIIIIIIIIIIIIIIIIIIIIIIIIIA
AAAAAAAAAAAAAAAAAAAAIIIIIIIIIIIIIIIIIIIIIIIIIIIIIIIIIIIIIIIIIIII
AIAAAAAAAAAAAAAAAAAAIIIIIIIIIIIIIIIIIIIIIIIIIIIIIIIIIIIIIIIIIIII
AIIAAAAAAAAAAAAAAAAAIIIIIIIIIIIIIIIIIIIIIIIIIIIIIIIIIIIIIIIIIIII
AIIIAAAAAAAAAAAAAAAAIIIIIIIIIIIIIIIIIIIIIIIIIIIIIIIIIIIIIIIIIIII
AIIIIAAAAAAAAAAAAAAAIIIIIIIIIIIIIIIIIIIIIIIIIIIIIIIIIIIIIIIIIIII
AIIIIIAAAAAAAAAAAAAAIIIIIIIIIIIIIIIIIIIIIIIIIIIIIIIIIIIIIIIIIIII
AIIIIIIAAAAAAAAAAAAAIIIIIIIIIIIIIIIIIIIIIIIIIIIIIIIIIIIIIIIIIIII
AIIIIIIIAAAAAAAAAAAAIIIIIIIIIIIIIIIIIIIIIIIIIIIIIIIIIIIIIIIIIIII
AIIIIIIIIAAAAAAAAAAAIIIIIIIIIIIIIIIIIIIIIIIIIIIIIIIIIIIIIIIIIIII
AIIIIIIIIIAAAAAAAAAAIIIIIIIIIIIIIIIIIIIIIIIIIIIIIIIIIIIIIIIIIIII
AIIIIIIIIIIAAAAAAAAAIIIIIIIIIIIIIIIIIIIIIIIIIIIIIIIIIIIIIIIIIIII
AIIIIIIIIIIIAAAAAAAAIIIIIIIIIIIIIIIIIIIIIIIIIIIIIIIIIIIIIIIIIIII
AIIIIIIIIIIIIAAAAAAAIIIIIIIIIIIIIIIIIIIIIIIIIIIIIIIIIIIIIIIIIIII
AIIIIIIIIIIIIIAAAAAAIIIIIIIIIIIIIIIIIIIIIIIIIIIIIIIIIIIIIIIIIIII
AIIIIIIIIIIIIIIAAAAAIIIIIIIIIIIIIIIIIIIIIIIIIIIIIIIIIIIIIIIIIIII
AIIIIIIIIIIIIIIIAAAAIIIIIIIIIIIIIIIIIIIIIIIIIIIIIIIIIIIIIIIIIIII
AIIIIIIIIIIIIIIIIAAAIIIIIIIIIIIIIIIIIIIIIIIIIIIIIIIIIIIIIIIIIIII
AIIIIIIIIIIIIIIIIIAAIIIIIIIIIIIIIIIIIIIIIIIIIIIIIIIIIIIIIIIIIIII
AIIIIIIIIIIIIIIIIIIAIIIIIIIIIIIIIIIIIIIIIIIIIIIIIIIIIIIIIIIIIIII
AIIIIIIIIIIIIIIIIIIIIIIIIIIIIIIIIIIIIIIIIIIIIIIIIIIIIIIIIIIIIIII
AIIIII2IIIII2IIIII4IIIII4IIIIIIIIIIIIIIIIIIIIIIIIIIIIIIIIIIIIIII
AAIIII22IIII22IIII44IIII44IIIIIIIIIIIIIIIIIIIIIIIIIIIIIIIIIIIIII
AAAIII222III222III444III444IIIIIIIIIIIIIIIIIIIIIIIIIIIIIIIIIIIII
AAAAII2222II2222II4444II4444IIIIIIIIIIIIIIIIIIIIIIIIIIIIIIIIIIII
AAAAAI22222I22222I44444I44444IIIIIIIIIIIIIIIIIIIIIIIIIIIIIIIIIII
AAAAAA222222222222444444444444IIIIIIIIIIIIIIIIIIIIIIIIIIIIIIIIII
AAAAAAA222222222222444444444444IIIIIIIIIIIIIIIIIIIIIIIIIIIIIIIII
AAAAAAAA222222222222444444444444IIIIIIIIIIIIIIIIIIIIIIIIIIIIIIII
AAAAAAAAA222222222222444444444444IIIIIIIIIIIIIIIIIIIIIIIIIIIIIII
AAAAAAAAAA222222222222444444444444IIIIIIIIIIIIIIIIIIIIIIIIIIIIII
AAAAAAAAAAA222222222222444444444444IIIIIIIIIIIIIIIIIIIIIIIIIIIII
AAAAAAAAAAAA222222222222444444444444IIIIIIIIIIIIIIIIIIIIIIIIIIII
AAAAAAAAAAAAA222222222222444444444444IIIIIIIIIIIIIIIIIIIIIIIIIII
AAAAAAAAAAAAAA222222222222444444444444IIIIIIIIIIIIIIIIIIIIIIIIII
AAAAAAAAAAAAAAA222222222222444444444444IIIIIIIIIIIIIIIIIIIIIIIII
AAAAAAAAAAAAAAAA222222222222444444444444IIIIIIIIIIIIIIIIIIIIIIII
AAAAAAAAAAAAAAAAA222222222222444444444444IIIIIIIIIIIIIIIIIIIIIII
AAAAAAAAAAAAAAAAAA222222222222444444444444IIIIIIIIIIIIIIIIIIIIII
AAAAAAAAAAAAAAAAAAA222222222222444444444444IIIIIIIIIIIIIIIIIIIII
AAAAAAAAAAAAAAAAAAAA222222222222444444444444IIIIIIIIIIIIIIIIIIII
AAAAAAAAAAAAAAAAAAAAA22222222222244444444444IIIIIIIIIIIIIIIIIIII
AAAAAAAAAAAAAAAAAAAAAA2222222222224444444444IIIIIIIIIIIIIIIIIIII
AAAAAAAAAAAAAAAAAAAAAAA222222222222444444444IIIIIIIIIIIIIIIIIIII
AAAAAAAAAAAAAAAAAAAAAAAA22222222222244444444IIIIIIIIIIIIIIIIIIII
AAAAAAAAAAAAAAAAAAAAAAAAA22222222222244444444IIIIIIIIIIIIIIIIIII
AAAAAAAAAAAAAAAAAAAAAAAAAA22222222222244444444IIIIIIIIIIIIIIIIII
AAAAAAAAAAAAAAAAAAAAAAAAAAA22222222222244444444IIIIIIIIIIIIIIIII
AAAAAAAAAAAAAAAAAAAAAAAAAAAA22222222222244444444IIIIIIIIIIIIIIII
AAAAAAAAAAAAAAAAAAAAAAAAAAAAA22222222222244444444IIIIIIIIIIIIIII
AAAAAAAAAAAAAAAAAAAAAAAAAAAAAA22222222222244444444IIIIIIIIIIIIII
AAAAAAAAAAAAAAAAAAAAAAAAAAAAAAA22222222222244444444IIIIIIIIIIIII
AAAAAAAAAAAAAAAAAAAAAAAAAAAAAAAA22222222222244444444IIIIIIIIIIII
AAAAAAAAAAAAAAAAAAAAAAAAAAAAAAAAA22222222222244444444IIIIIIIIIII
AAAAAAAAAAAAAAAAAAAAAAAAAAAAAAAAAA22222222222244444444IIIIIIIIII
AAAAAAAAAAAAAAAAAAAAAAAAAAAAAAAAAAA22222222222244444444IIIIIIIII
AAAAAAAAAAAAAAAAAAAAAAAAAAAAAAAAAAAA22222222222244444444IIIIIIII
AAAAAAAAAAAAAAAAAAAAAAAAAAAAAAAAAAAAA22222222222244444444IIIIIII
AAAAAAAAAAAAAAAAAAAAAAAAAAAAAAAAAAAAAA22222222222244444444IIIIII
AAAAAAAAAAAAAAAAAAAAAAAAAAAAAAAAAAAAAAA22222222222244444444IIIII
AAAAAAAAAAAAAAAAAAAAAAAAAAAAAAAAAAAAAAAA22222222222244444444IIII
AAAAAAAAAAAAAAAAAAAAAAAAAAAAAAAAAAAAAAAAA22222222222244444444III
AAAAAAAAAAAAAAAAAAAAAAAAAAAAAAAAAAAAAAAAAA22222222222244444444II
AAAAAAAAAAAAAAAAAAAAAAAAAAAAAAAAAAAAAAAAAAA22222222222244444444I
AAAAAAAAAAAAAAAAAAAAAAAAAAAAAAAAAAAAAAAAAAAA22222222222244444444
AAAAAAAAAAAAAAAAAAAAAAAAAAAAAAAAAAAAAAAAAAAAA2222222222224444444
AAAAAAAAAAAAAAAAAAAAAAAAAAAAAAAAAAAAAAAAAAAAAA222222222222444444
AAAAAAAAAAAAAAAAAAAAAAAAAAAAAAAAAAAAAAAAAAAAAAA22222222222244444
AAAAAAAAAAAAAAAAAAAAAAAAAAAAAAAAAAAAAAAAAAAAAAAA2222222222224444
AAAAAAAAAAAAAAAAAAAAAAAAAAAAAAAAAAAAAAAAAAAAAAAAA222222222222444
AAAAAAAAAAAAAAAAAAAAAAAAAAAAAAAAAAAAAAAAAAAAAAAAAA22222222222244
AAAAAAAAAAAAAAAAAAAAAAAAAAAAAAAAAAAAAAAAAAAAAAAAAAA2222222222224
AAAAAAAAAAAAAAAAAAAAAAAAAAAAAAAAAAAAAAAAAAAAAAAAAAAA222222222222
AAAAAAAAAAAAAAAAAAAAAAAAAAAAAAAAAAAAAAAAAAAAAAAAAAAAA22222222222
AAAAAAAAAAAAAAAAAAAAAAAAAAAAAAAAAAAAAAAAAAAAAAAAAAAAAA2222222222
AAAAAAAAAAAAAAAAAAAAAAAAAAAAAAAAAAAAAAAAAAAAAAAAAAAAAAA222222222
AAAAAAAAAAAAAAAAAAAAAAAAAAAAAAAAAAAAAAAAAAAAAAAAAAAAAAAA22222222
AAAAAAAAAAAAAAAAAAAAAAAAAAAAAAAAAAAAAAAAAAAAAAAAAAAAAAAAA2222222
AAAAAAAAAAAAAAAAAAAAAAAAAAAAAAAAAAAAAAAAAAAAAAAAAAAAAAAAAA222222
AAAAAAAAAAAAAAAAAAAAAAAAAAAAAAAAAAAAAAAAAAAAAAAAAAAAAAAAAAA22222
AAAAAAAAAAAAAAAAAAAAAAAAAAAAAAAAAAAAAAAAAAAAAAAAAAAAAAAAAAAA2222
AAAAAAAAAAAAAAAAAAAAAAAAAAAAAAAAAAAAAAAAAAAAAAAAAAAAAAAAAAAAA222
AAAAAAAAAAAAAAAAAAAAAAAAAAAAAAAAAAAAAAAAAAAAAAAAAAAAAAAAAAAAAA22
AAAAAAAAAAAAAAAAAAAAAAAAAAAAAAAAAAAAAAAAAAAAAAAAAAAAAAAAAAAAAAA2
AAAAAAAAAAAAAAAAAAAAAAAAAAAAAAAAAAAAAAAAAAAAAAAAAAAAAAAAAAAAAAAA
AAAAAAAAAAAAAAAAAAAAIAAAAAAAAAAAAAAAAAAAAAAAAAAAAAAAAAAAAAAAAAAA
AAAAAAAAAAAAAAAAAAAAIIAAAAAAAAAAAAAAAAAAAAAAAAAAAAAAAAAAAAAAAAAA
AAAAAAAAAAAAAAAAAAAAIIIAAAAAAAAAAAAAAAAAAAAAAAAAAAAAAAAAAAAAAAAA
AAAAAAAAAAAAAAAAAAAAIIIIAAAAAAAAAAAAAAAAAAAAAAAAAAAAAAAAAAAAAAAA
AAAAAAAAAAAAAAAAAAAAIIIIIAAAAAAAAAAAAAAAAAAAAAAAAAAAAAAAAAAAAAAA
AAAAAAAAAAAAAAAAAAAAIIIIIIAAAAAAAAAAAAAAAAAAAAAAAAAAAAAAAAAAAAAA
AAAAAAAAAAAAAAAAAAAAIIIIIIIAAAAAAAAAAAAAAAAAAAAAAAAAAAAAAAAAAAAA
AAAAAAAAAAAAAAAAAAAAIIIIIIIIAAAAAAAAAAAAAAAAAAAAAAAAAAAAAAAAAAAA
AAAAAAAAAAAAAAAAAAAAIIIIIIIIIAAAAAAAAAAAAAAAAAAAAAAAAAAAAAAAAAAA
AAAAAAAAAAAAAAAAAAAAIIIIIIIIIIAAAAAAAAAAAAAAAAAAAAAAAAAAAAAAAAAA
AAAAAAAAAAAAAAAAAAAAIIIIIIIIIIIAAAAAAAAAAAAAAAAAAAAAAAAAAAAAAAAA
AAAAAAAAAAAAAAAAAAAAIIIIIIIIIIIIAAAAAAAAAAAAAAAAAAAAAAAAAAAAAAAA
AAAAAAAAAAAAAAAAAAAAIIIIIIIIIIIIIAAAAAAAAAAAAAAAAAAAAAAAAAAAAAAA
AAAAAAAAAAAAAAAAAAAAIIIIIIIIIIIIIIAAAAAAAAAAAAAAAAAAAAAAAAAAAAAA
AAAAAAAAAAAAAAAAAAAAIIIIIIIIIIIIIIIAAAAAAAAAAAAAAAAAAAAAAAAAAAAA
AAAAAAAAAAAAAAAAAAAAIIIIIIIIIIIIIIIIAAAAAAAAAAAAAAAAAAAAAAAAAAAA
AAAAAAAAAAAAAAAAAAAAIIIIIIIIIIIIIIIIIAAAAAAAAAAAAAAAAAAAAAAAAAAA
AAAAAAAAAAAAAAAAAAAAIIIIIIIIIIIIIIIIIIAAAAAAAAAAAAAAAAAAAAAAAAAA
AAAAAAAAAAAAAAAAAAAAIIIIIIIIIIIIIIIIIIIAAAAAAAAAAAAAAAAAAAAAAAAA
AAAAAAAAAAAAAAAAAAAAIIIIIIIIIIIIIIIIIIIIAAAAAAAAAAAAAAAAAAAAAAAA
AAAAAAAAAAAAAAAAAAAAIIIIIIIIIIIIIIIIIIIIIAAAAAAAAAAAAAAAAAAAAAAA
AAAAAAAAAAAAAAAAAAAAIIIIIIIIIIIIIIIIIIIIIIAAAAAAAAAAAAAAAAAAAAAA
AAAAAAAAAAAAAAAAAAAAIIIIIIIIIIIIIIIIIIIIIIIAAAAAAAAAAAAAAAAAAAAA
AAAAAAAAAAAAAAAAAAAAIIIIIIIIIIIIIIIIIIIIIIIIAAAAAAAAAAAAAAAAAAAA
AAAAAAAAAAAAAAAAAAAAIIIIIIIIIIIIIIIIIIIIIIIIIAAAAAAAAAAAAAAAAAAA
AAAAAAAAAAAAAAAAAAAAIIIIIIIIIIIIIIIIIIIIIIIIIIAAAAAAAAAAAAAAAAAA
AAAAAAAAAAAAAAAAAAAAIIIIIIIIIIIIIIIIIIIIIIIIIIIAAAAAAAAAAAAAAAAA
AAAAAAAAAAAAAAAAAAAAIIIIIIIIIIIIIIIIIIIIIIIIIIIIAAAAAAAAAAAAAAAA
AAAAAAAAAAAAAAAAAAAAIIIIIIIIIIIIIIIIIIIIIIIIIIIIIAAAAAAAAAAAAAAA
AAAAAAAAAAAAAAAAAAAAIIIIIIIIIIIIIIIIIIIIIIIIIIIIIIAAAAAAAAAAAAAA
AAAAAAAAAAAAAAAAAAAAIIIIIIIIIIIIIIIIIIIIIIIIIIIIIIIAAAAAAAAAAAAA
AAAAAAAAAAAAAAAAAAAAIIIIIIIIIIIIIIIIIIIIIIIIIIIIIIIIAAAAAAAAAAAA
AAAAAAAAAAAAAAAAAAAAIIIIIIIIIIIIIIIIIIIIIIIIIIIIIIIIIAAAAAAAAAAA
AAAAAAAAAAAAAAAAAAAAIIIIIIIIIIIIIIIIIIIIIIIIIIIIIIIIIIAAAAAAAAAA
AAAAAAAAAAAAAAAAAAAAIIIIIIIIIIIIIIIIIIIIIIIIIIIIIIIIIIIAAAAAAAAA
AAAAAAAAAAAAAAAAAAAAIIIIIIIIIIIIIIIIIIIIIIIIIIIIIIIIIIIIAAAAAAAA
AAAAAAAAAAAAAAAAAAAAIIIIIIIIIIIIIIIIIIIIIIIIIIIIIIIIIIIIIAAAAAAA
AAAAAAAAAAAAAAAAAAAAIIIIIIIIIIIIIIIIIIIIIIIIIIIIIIIIIIIIIIAAAAAA
AAAAAAAAAAAAAAAAAAAAIIIIIIIIIIIIIIIIIIIIIIIIIIIIIIIIIIIIIIIAAAAA
AAAAAAAAAAAAAAAAAAAAIIIIIIIIIIIIIIIIIIIIIIIIIIIIIIIIIIIIIIIIAAAA
AAAAAAAAAAAAAAAAAAAAIIIIIIIIIIIIIIIIIIIIIIIIIIIIIIIIIIIIIIIIIAAA
AAAAAAAAAAAAAAAAAAAAIIIIIIIIIIIIIIIIIIIIIIIIIIIIIIIIIIIIIIIIIIAA
AAAAAAAAAAAAAAAAAAAAIIIIIIIIIIIIIIIIIIIIIIIIIIIIIIIIIIIIIIIIIIIA
AAAAAAAAAAAAAAAAAAAAIIIIIIIIIIIIIIIIIIIIIIIIIIIIIIIIIIIIIIIIIIII
AAAAIAAAAAAAAAAAAAAAIIIIIIIIIIIIIIIIIIIIIIIIIIIIIIIIIIIIIIIIIIII
AAAAIIAAAAAAAAAAAAAAIIIIIIIIIIIIIIIIIIIIIIIIIIIIIIIIIIIIIIIIIIII
AAAAIIIAAAAAAAAAAAAAIIIIIIIIIIIIIIIIIIIIIIIIIIIIIIIIIIIIIIIIIIII
AAAAIIIIAAAAAAAAAAAAIIIIIIIIIIIIIIIIIIIIIIIIIIIIIIIIIIIIIIIIIIII
AAAAIIIIIAAAAAAAAAAAIIIIIIIIIIIIIIIIIIIIIIIIIIIIIIIIIIIIIIIIIIII
AAAAIIIIIIAAAAAAAAAAIIIIIIIIIIIIIIIIIIIIIIIIIIIIIIIIIIIIIIIIIIII
AAAAIIIIIIIAAAAAAAAAIIIIIIIIIIIIIIIIIIIIIIIIIIIIIIIIIIIIIIIIIIII
AAAAIIIIIIIIAAAAAAAAIIIIIIIIIIIIIIIIIIIIIIIIIIIIIIIIIIIIIIIIIIII
AAAAIIIIIIIIIAAAAAAAIIIIIIIIIIIIIIIIIIIIIIIIIIIIIIIIIIIIIIIIIIII
AAAAIIIIIIIIIIAAAAAAIIIIIIIIIIIIIIIIIIIIIIIIIIIIIIIIIIIIIIIIIIII
AAAAIIIIIIIIIIIAAAAAIIIIIIIIIIIIIIIIIIIIIIIIIIIIIIIIIIIIIIIIIIII
AAAAIIIIIIIIIIIIAAAAIIIIIIIIIIIIIIIIIIIIIIIIIIIIIIIIIIIIIIIIIIII
AAAAIIIIIIIIIIIIIAAAIIIIIIIIIIIIIIIIIIIIIIIIIIIIIIIIIIIIIIIIIIII
AAAAIIIIIIIIIIIIIIAAIIIIIIIIIIIIIIIIIIIIIIIIIIIIIIIIIIIIIIIIIIII
AAAAIIIIIIIIIIIIIIIAIIIIIIIIIIIIIIIIIIIIIIIIIIIIIIIIIIIIIIIIIIII
AAAAIIIIIIIIIIIIIIIIIIIIIIIIIIIIIIIIIIIIIIIIIIIIIIIIIIIIIIIIIIII
AAAAII2IIIII2IIIII4IIIII4IIIIIIIIIIIIIIIIIIIIIIIIIIIIIIIIIIIIIII
AAAAII22IIII22IIII44IIII44IIIIIIIIIIIIIIIIIIIIIIIIIIIIIIIIIIIIII
AAAAII222III222III444III444IIIIIIIIIIIIIIIIIIIIIIIIIIIIIIIIIIIII
AAAAII2222II2222II4444II4444IIIIIIIIIIIIIIIIIIIIIIIIIIIIIIIIIIII
AAAAAI22222I22222I44444I44444IIIIIIIIIIIIIIIIIIIIIIIIIIIIIIIIIII
AAAAAA222222222222444444444444IIIIIIIIIIIIIIIIIIIIIIIIIIIIIIIIII
AAAAAAA222222222222444444444444IIIIIIIIIIIIIIIIIIIIIIIIIIIIIIIII
AAAAAAAA222222222222444444444444IIIIIIIIIIIIIIIIIIIIIIIIIIIIIIII
AAAAAAAAA222222222222444444444444IIIIIIIIIIIIIIIIIIIIIIIIIIIIIII
AAAAAAAAAA222222222222444444444444IIIIIIIIIIIIIIIIIIIIIIIIIIIIII
AAAAAAAAAAA222222222222444444444444IIIIIIIIIIIIIIIIIIIIIIIIIIIII
AAAAAAAAAAAA222222222222444444444444IIIIIIIIIIIIIIIIIIIIIIIIIIII
AAAAAAAAAAAAA222222222222444444444444IIIIIIIIIIIIIIIIIIIIIIIIIII
AAAAAAAAAAAAAA222222222222444444444444IIIIIIIIIIIIIIIIIIIIIIIIII
AAAAAAAAAAAAAAA222222222222444444444444IIIIIIIIIIIIIIIIIIIIIIIII
AAAAAAAAAAAAAAAA222222222222444444444444IIIIIIIIIIIIIIIIIIIIIIII
AAAAAAAAAAAAAAAAA222222222222444444444444IIIIIIIIIIIIIIIIIIIIIII
AAAAAAAAAAAAAAAAAA222222222222444444444444IIIIIIIIIIIIIIIIIIIIII
AAAAAAAAAAAAAAAAAAA222222222222444444444444IIIIIIIIIIIIIIIIIIIII
AAAAAAAAAAAAAAAAAAAA222222222222444444444444IIIIIIIIIIIIIIIIIIII
AAAAAAAAAAAAAAAAAAAAA222222222222444444444444IIIIIIIIIIIIIIIIIII
AAAAAAAAAAAAAAAAAAAAAA222222222222444444444444IIIIIIIIIIIIIIIIII
AAAAAAAAAAAAAAAAAAAAAAA222222222222444444444444IIIIIIIIIIIIIIIII
AAAAAAAAAAAAAAAAAAAAAAAA222222222222444444444444IIIIIIIIIIIIIIII
AAAAAAAAAAAAAAAAAAAAAAAAA222222222222444444444444IIIIIIIIIIIIIII
AAAAAAAAAAAAAAAAAAAAAAAAAA222222222222444444444444IIIIIIIIIIIIII
AAAAAAAAAAAAAAAAAAAAAAAAAAA222222222222444444444444IIIIIIIIIIIII
AAAAAAAAAAAAAAAAAAAAAAAAAAAA22222222222244444444444IIIIIIIIIIIII
AAAAAAAAAAAAAAAAAAAAAAAAAAAAA2222222222224444444444IIIIIIIIIIIII
AAAAAAAAAAAAAAAAAAAAAAAAAAAAAA222222222222444444444IIIIIIIIIIIII
AAAAAAAAAAAAAAAAAAAAAAAAAAAAAAA22222222222244444444IIIIIIIIIIIII
AAAAAAAAAAAAAAAAAAAAAAAAAAAAAAAA22222222222244444444IIIIIIIIIIII
AAAAAAAAAAAAAAAAAAAAAAAAAAAAAAAAA22222222222244444444IIIIIIIIIII
AAAAAAAAAAAAAAAAAAAAAAAAAAAAAAAAAA22222222222244444444IIIIIIIIII
AAAAAAAAAAAAAAAAAAAAAAAAAAAAAAAAAAA22222222222244444444IIIIIIIII
AAAAAAAAAAAAAAAAAAAAAAAAAAAAAAAAAAAA22222222222244444444IIIIIIII
AAAAAAAAAAAAAAAAAAAAAAAAAAAAAAAAAAAAA22222222222244444444IIIIIII
AAAAAAAAAAAAAAAAAAAAAAAAAAAAAAAAAAAAAA22222222222244444444IIIIII
AAAAAAAAAAAAAAAAAAAAAAAAAAAAAAAAAAAAAAA22222222222244444444IIIII
AAAAAAAAAAAAAAAAAAAAAAAAAAAAAAAAAAAAAAAA22222222222244444444IIII
AAAAAAAAAAAAAAAAAAAAAAAAAAAAAAAAAAAAAAAAA22222222222244444444III
AAAAAAAAAAAAAAAAAAAAAAAAAAAAAAAAAAAAAAAAAA22222222222244444444II
AAAAAAAAAAAAAAAAAAAAAAAAAAAAAAAAAAAAAAAAAAA22222222222244444444I
AAAAAAAAAAAAAAAAAAAAAAAAAAAAAAAAAAAAAAAAAAAA22222222222244444444
AAAAAAAAAAAAAAAAAAAAAAAAAAAAAAAAAAAAAAAAAAAAA2222222222224444444
AAAAAAAAAAAAAAAAAAAAAAAAAAAAAAAAAAAAAAAAAAAAAA222222222222444444
AAAAAAAAAAAAAAAAAAAAAAAAAAAAAAAAAAAAAAAAAAAAAAA22222222222244444
AAAAAAAAAAAAAAAAAAAAAAAAAAAAAAAAAAAAAAAAAAAAAAAA2222222222224444
AAAAAAAAAAAAAAAAAAAAAAAAAAAAAAAAAAAAAAAAAAAAAAAAA222222222222444
AAAAAAAAAAAAAAAAAAAAAAAAAAAAAAAAAAAAAAAAAAAAAAAAAA22222222222244
AAAAAAAAAAAAAAAAAAAAAAAAAAAAAAAAAAAAAAAAAAAAAAAAAAA2222222222224
AAAAAAAAAAAAAAAAAAAAAAAAAAAAAAAAAAAAAAAAAAAAAAAAAAAA222222222222
AAAAAAAAAAAAAAAAAAAAAAAAAAAAAAAAAAAAAAAAAAAAAAAAAAAAA22222222222
AAAAAAAAAAAAAAAAAAAAAAAAAAAAAAAAAAAAAAAAAAAAAAAAAAAAAA2222222222
AAAAAAAAAAAAAAAAAAAAAAAAAAAAAAAAAAAAAAAAAAAAAAAAAAAAAAA222222222
AAAAAAAAAAAAAAAAAAAAAAAAAAAAAAAAAAAAAAAAAAAAAAAAAAAAAAAA22222222
AAAAAAAAAAAAAAAAAAAAAAAAAAAAAAAAAAAAAAAAAAAAAAAAAAAAAAAAA2222222
AAAAAAAAAAAAAAAAAAAAAAAAAAAAAAAAAAAAAAAAAAAAAAAAAAAAAAAAAA222222
AAAAAAAAAAAAAAAAAAAAAAAAAAAAAAAAAAAAAAAAAAAAAAAAAAAAAAAAAAA22222
AAAAAAAAAAAAAAAAAAAAAAAAAAAAAAAAAAAAAAAAAAAAAAAAAAAAAAAAAAAA2222
AAAAAAAAAAAAAAAAAAAAAAAAAAAAAAAAAAAAAAAAAAAAAAAAAAAAAAAAAAAAA222
AAAAAAAAAAAAAAAAAAAAAAAAAAAAAAAAAAAAAAAAAAAAAAAAAAAAAAAAAAAAAA22
AAAAAAAAAAAAAAAAAAAAAAAAAAAAAAAAAAAAAAAAAAAAAAAAAAAAAAAAAAAAAAA2
AAAAAAAAAAAAAAAAAAAAAAAAAAAAAAAAAAAAAAAAAAAAAAAAAAAAAAAAAAAAAAAA
AAAAAAAAAAAAAAAAAAAAIAAAAAAAAAAAAAAAAAAAAAAAAAAAAAAAAAAAAAAAAAAA
AAAAAAAAAAAAAAAAAAAAIIAAAAAAAAAAAAAAAAAAAAAAAAAAAAAAAAAAAAAAAAAA
AAAAAAAAAAAAAAAAAAAAIIIAAAAAAAAAAAAAAAAAAAAAAAAAAAAAAAAAAAAAAAAA
AAAAAAAAAAAAAAAAAAAAIIIIAAAAAAAAAAAAAAAAAAAAAAAAAAAAAAAAAAAAAAAA
AAAAAAAAAAAAAAAAAAAAIIIIIAAAAAAAAAAAAAAAAAAAAAAAAAAAAAAAAAAAAAAA
AAAAAAAAAAAAAAAAAAAAIIIIIIAAAAAAAAAAAAAAAAAAAAAAAAAAAAAAAAAAAAAA
AAAAAAAAAAAAAAAAAAAAIIIIIIIAAAAAAAAAAAAAAAAAAAAAAAAAAAAAAAAAAAAA
AAAAAAAAAAAAAAAAAAAAIIIIIIIIAAAAAAAAAAAAAAAAAAAAAAAAAAAAAAAAAAAA
AAAAAAAAAAAAAAAAAAAAIIIIIIIIIAAAAAAAAAAAAAAAAAAAAAAAAAAAAAAAAAAA
AAAAAAAAAAAAAAAAAAAAIIIIIIIIIIAAAAAAAAAAAAAAAAAAAAAAAAAAAAAAAAAA
AAAAAAAAAAAAAAAAAAAAIIIIIIIIIIIAAAAAAAAAAAAAAAAAAAAAAAAAAAAAAAAA
AAAAAAAAAAAAAAAAAAAAIIIIIIIIIIIIAAAAAAAAAAAAAAAAAAAAAAAAAAAAAAAA
AAAAAAAAAAAAAAAAAAAAIIIIIIIIIIIIIAAAAAAAAAAAAAAAAAAAAAAAAAAAAAAA
AAAAAAAAAAAAAAAAAAAAIIIIIIIIIIIIIIAAAAAAAAAAAAAAAAAAAAAAAAAAAAAA
AAAAAAAAAAAAAAAAAAAAIIIIIIIIIIIIIIIAAAAAAAAAAAAAAAAAAAAAAAAAAAAA
AAAAAAAAAAAAAAAAAAAAIIIIIIIIIIIIIIIIAAAAAAAAAAAAAAAAAAAAAAAAAAAA
AAAAAAAAAAAAAAAAAAAAIIIIIIIIIIIIIIIIIAAAAAAAAAAAAAAAAAAAAAAAAAAA
AAAAAAAAAAAAAAAAAAAAIIIIIIIIIIIIIIIIIIAAAAAAAAAAAAAAAAAAAAAAAAAA
AAAAAAAAAAAAAAAAAAAAIIIIIIIIIIIIIIIIIIIAAAAAAAAAAAAAAAAAAAAAAAAA
AAAAAAAAAAAAAAAAAAAAIIIIIIIIIIIIIIIIIIIIAAAAAAAAAAAAAAAAAAAAAAAA
AAAAAAAAAAAAAAAAAAAAIIIIIIIIIIIIIIIIIIIIIAAAAAAAAAAAAAAAAAAAAAAA
AAAAAAAAAAAAAAAAAAAAIIIIIIIIIIIIIIIIIIIIIIAAAAAAAAAAAAAAAAAAAAAA
AAAAAAAAAAAAAAAAAAAAIIIIIIIIIIIIIIIIIIIIIIIAAAAAAAAAAAAAAAAAAAAA
AAAAAAAAAAAAAAAAAAAAIIIIIIIIIIIIIIIIIIIIIIIIAAAAAAAAAAAAAAAAAAAA
AAAAAAAAAAAAAAAAAAAAIIIIIIIIIIIIIIIIIIIIIIIIIAAAAAAAAAAAAAAAAAAA
AAAAAAAAAAAAAAAAAAAAIIIIIIIIIIIIIIIIIIIIIIIIIIAAAAAAAAAAAAAAAAAA
AAAAAAAAAAAAAAAAAAAAIIIIIIIIIIIIIIIIIIIIIIIIIIIAAAAAAAAAAAAAAAAA
AAAAAAAAAAAAAAAAAAAAIIIIIIIIIIIIIIIIIIIIIIIIIIIIAAAAAAAAAAAAAAAA
AAAAAAAAAAAAAAAAAAAAIIIIIIIIIIIIIIIIIIIIIIIIIIIIIAAAAAAAAAAAAAAA
AAAAAAAAAAAAAAAAAAAAIIIIIIIIIIIIIIIIIIIIIIIIIIIIIIAAAAAAAAAAAAAA
AAAAAAAAAAAAAAAAAAAAIIIIIIIIIIIIIIIIIIIIIIIIIIIIIIIAAAAAAAAAAAAA
AAAAAAAAAAAAAAAAAAAAIIIIIIIIIIIIIIIIIIIIIIIIIIIIIIIIAAAAAAAAAAAA
AAAAAAAAAAAAAAAAAAAAIIIIIIIIIIIIIIIIIIIIIIIIIIIIIIIIIAAAAAAAAAAA
AAAAAAAAAAAAAAAAAAAAIIIIIIIIIIIIIIIIIIIIIIIIIIIIIIIIIIAAAAAAAAAA
AAAAAAAAAAAAAAAAAAAAIIIIIIIIIIIIIIIIIIIIIIIIIIIIIIIIIIIAAAAAAAAA
AAAAAAAAAAAAAAAAAAAAIIIIIIIIIIIIIIIIIIIIIIIIIIIIIIIIIIIIAAAAAAAA
AAAAAAAAAAAAAAAAAAAAIIIIIIIIIIIIIIIIIIIIIIIIIIIIIIIIIIIIIAAAAAAA
AAAAAAAAAAAAAAAAAAAAIIIIIIIIIIIIIIIIIIIIIIIIIIIIIIIIIIIIIIAAAAAA
AAAAAAAAAAAAAAAAAAAAIIIIIIIIIIIIIIIIIIIIIIIIIIIIIIIIIIIIIIIAAAAA
AAAAAAAAAAAAAAAAAAAAIIIIIIIIIIIIIIIIIIIIIIIIIIIIIIIIIIIIIIIIAAAA
AAAAAAAAAAAAAAAAAAAAIIIIIIIIIIIIIIIIIIIIIIIIIIIIIIIIIIIIIIIIIAAA
AAAAAAAAAAAAAAAAAAAAIIIIIIIIIIIIIIIIIIIIIIIIIIIIIIIIIIIIIIIIIIAA
AAAAAAAAAAAAAAAAAAAAIIIIIIIIIIIIIIIIIIIIIIIIIIIIIIIIIIIIIIIIIIIA
AAAAAAAAAAAAAAAAAAAAIIIIIIIIIIIIIIIIIIIIIIIIIIIIIIIIIIIIIIIIIIII
AAAAAAIAAAAAAAAAAAAAIIIIIIIIIIIIIIIIIIIIIIIIIIIIIIIIIIIIIIIIIIII
AAAAAAIIAAAAAAAAAAAAIIIIIIIIIIIIIIIIIIIIIIIIIIIIIIIIIIIIIIIIIIII
AAAAAAIIIAAAAAAAAAAAIIIIIIIIIIIIIIIIIIIIIIIIIIIIIIIIIIIIIIIIIIII
AAAAAAIIIIAAAAAAAAAAIIIIIIIIIIIIIIIIIIIIIIIIIIIIIIIIIIIIIIIIIIII
AAAAAAIIIIIAAAAAAAAAIIIIIIIIIIIIIIIIIIIIIIIIIIIIIIIIIIIIIIIIIIII
AAAAAAIIIIIIAAAAAAAAIIIIIIIIIIIIIIIIIIIIIIIIIIIIIIIIIIIIIIIIIIII
AAAAAAIIIIIIIAAAAAAAIIIIIIIIIIIIIIIIIIIIIIIIIIIIIIIIIIIIIIIIIIII
AAAAAAIIIIIIIIAAAAAAIIIIIIIIIIIIIIIIIIIIIIIIIIIIIIIIIIIIIIIIIIII
AAAAAAIIIIIIIIIAAAAAIIIIIIIIIIIIIIIIIIIIIIIIIIIIIIIIIIIIIIIIIIII
AAAAAAIIIIIIIIIIAAAAIIIIIIIIIIIIIIIIIIIIIIIIIIIIIIIIIIIIIIIIIIII
AAAAAAIIIIIIIIIIIAAAIIIIIIIIIIIIIIIIIIIIIIIIIIIIIIIIIIIIIIIIIIII
AAAAAAIIIIIIIIIIIIAAIIIIIIIIIIIIIIIIIIIIIIIIIIIIIIIIIIIIIIIIIIII
AAAAAAIIIIIIIIIIIIIAIIIIIIIIIIIIIIIIIIIIIIIIIIIIIIIIIIIIIIIIIIII
AAAAAAIIIIIIIIIIIIIIIIIIIIIIIIIIIIIIIIIIIIIIIIIIIIIIIIIIIIIIIIII
AAAAAA2IIIII2IIIII2IIIII4IIIIIIIIIIIIIIIIIIIIIIIIIIIIIIIIIIIIIII
AAAAAA22IIII22IIII22IIII44IIIIIIIIIIIIIIIIIIIIIIIIIIIIIIIIIIIIII
AAAAAA222III222III222III444IIIIIIIIIIIIIIIIIIIIIIIIIIIIIIIIIIIII
AAAAAA2222II2222II2222II4444IIIIIIIIIIIIIIIIIIIIIIIIIIIIIIIIIIII
AAAAAA22222I22222I22222I44444IIIIIIIIIIIIIIIIIIIIIIIIIIIIIIIIIII
AAAAAA222222222222222222444444IIIIIIIIIIIIIIIIIIIIIIIIIIIIIIIIII
AAAAAAA222222222222222222444444IIIIIIIIIIIIIIIIIIIIIIIIIIIIIIIII
AAAAAAAA222222222222222222444444IIIIIIIIIIIIIIIIIIIIIIIIIIIIIIII
AAAAAAAAA222222222222222222444444IIIIIIIIIIIIIIIIIIIIIIIIIIIIIII
AAAAAAAAAA222222222222222222444444IIIIIIIIIIIIIIIIIIIIIIIIIIIIII
AAAAAAAAAAA222222222222222222444444IIIIIIIIIIIIIIIIIIIIIIIIIIIII
AAAAAAAAAAAA222222222222222222444444IIIIIIIIIIIIIIIIIIIIIIIIIIII
AAAAAAAAAAAAA222222222222222222444444IIIIIIIIIIIIIIIIIIIIIIIIIII
AAAAAAAAAAAAAA222222222222222222444444IIIIIIIIIIIIIIIIIIIIIIIIII
AAAAAAAAAAAAAAA222222222222222222444444IIIIIIIIIIIIIIIIIIIIIIIII
AAAAAAAAAAAAAAAA222222222222222222444444IIIIIIIIIIIIIIIIIIIIIIII
AAAAAAAAAAAAAAAAA222222222222222222444444IIIIIIIIIIIIIIIIIIIIIII
AAAAAAAAAAAAAAAAAA222222222222222222444444IIIIIIIIIIIIIIIIIIIIII
AAAAAAAAAAAAAAAAAAA222222222222222222444444IIIIIIIIIIIIIIIIIIIII
AAAAAAAAAAAAAAAAAAAA222222222222222224444444IIIIIIIIIIIIIIIIIIII
AAAAAAAAAAAAAAAAAAAAA222222222222222244444444IIIIIIIIIIIIIIIIIII
AAAAAAAAAAAAAAAAAAAAAA222222222222222444444444IIIIIIIIIIIIIIIIII
AAAAAAAAAAAAAAAAAAAAAAA222222222222224444444444IIIIIIIIIIIIIIIII
AAAAAAAAAAAAAAAAAAAAAAAA222222222222244444444444IIIIIIIIIIIIIIII
AAAAAAAAAAAAAAAAAAAAAAAAA222222222222444444444444IIIIIIIIIIIIIII
AAAAAAAAAAAAAAAAAAAAAAAAAA222222222222444444444444IIIIIIIIIIIIII
AAAAAAAAAAAAAAAAAAAAAAAAAAA222222222222444444444444IIIIIIIIIIIII
AAAAAAAAAAAAAAAAAAAAAAAAAAAA222222222222444444444444IIIIIIIIIIII
AAAAAAAAAAAAAAAAAAAAAAAAAAAAA222222222222444444444444IIIIIIIIIII
AAAAAAAAAAAAAAAAAAAAAAAAAAAAAA222222222222444444444444IIIIIIIIII
AAAAAAAAAAAAAAAAAAAAAAAAAAAAAAA222222222222444444444444IIIIIIIII
AAAAAAAAAAAAAAAAAAAAAAAAAAAAAAAA222222222222444444444444IIIIIIII
AAAAAAAAAAAAAAAAAAAAAAAAAAAAAAAAA222222222222444444444444IIIIIII
AAAAAAAAAAAAAAAAAAAAAAAAAAAAAAAAAA222222222222444444444444IIIIII
AAAAAAAAAAAAAAAAAAAAAAAAAAAAAAAAAAA222222222222444444444444IIIII
AAAAAAAAAAAAAAAAAAAAAAAAAAAAAAAAAAAA222222222222444444444444IIII
AAAAAAAAAAAAAAAAAAAAAAAAAAAAAAAAAAAAA222222222222444444444444III
AAAAAAAAAAAAAAAAAAAAAAAAAAAAAAAAAAAAAA222222222222444444444444II
AAAAAAAAAAAAAAAAAAAAAAAAAAAAAAAAAAAAAAA222222222222444444444444I
AAAAAAAAAAAAAAAAAAAAAAAAAAAAAAAAAAAAAAAA222222222222444444444444
AAAAAAAAAAAAAAAAAAAAAAAAAAAAAAAAAAAAAAAAA22222222222244444444444
AAAAAAAAAAAAAAAAAAAAAAAAAAAAAAAAAAAAAAAAAA2222222222224444444444
AAAAAAAAAAAAAAAAAAAAAAAAAAAAAAAAAAAAAAAAAAA222222222222444444444
AAAAAAAAAAAAAAAAAAAAAAAAAAAAAAAAAAAAAAAAAAAA22222222222244444444
AAAAAAAAAAAAAAAAAAAAAAAAAAAAAAAAAAAAAAAAAAAAA2222222222224444444
AAAAAAAAAAAAAAAAAAAAAAAAAAAAAAAAAAAAAAAAAAAAAA222222222222444444
AAAAAAAAAAAAAAAAAAAAAAAAAAAAAAAAAAAAAAAAAAAAAAA22222222222244444
AAAAAAAAAAAAAAAAAAAAAAAAAAAAAAAAAAAAAAAAAAAAAAAA2222222222224444
AAAAAAAAAAAAAAAAAAAAAAAAAAAAAAAAAAAAAAAAAAAAAAAAA222222222222444
AAAAAAAAAAAAAAAAAAAAAAAAAAAAAAAAAAAAAAAAAAAAAAAAAA22222222222244
AAAAAAAAAAAAAAAAAAAAAAAAAAAAAAAAAAAAAAAAAAAAAAAAAAA2222222222224
AAAAAAAAAAAAAAAAAAAAAAAAAAAAAAAAAAAAAAAAAAAAAAAAAAAA222222222222
AAAAAAAAAAAAAAAAAAAAAAAAAAAAAAAAAAAAAAAAAAAAAAAAAAAAA22222222222
AAAAAAAAAAAAAAAAAAAAAAAAAAAAAAAAAAAAAAAAAAAAAAAAAAAAAA2222222222
AAAAAAAAAAAAAAAAAAAAAAAAAAAAAAAAAAAAAAAAAAAAAAAAAAAAAAA222222222
AAAAAAAAAAAAAAAAAAAAAAAAAAAAAAAAAAAAAAAAAAAAAAAAAAAAAAAA22222222
AAAAAAAAAAAAAAAAAAAAAAAAAAAAAAAAAAAAAAAAAAAAAAAAAAAAAAAAA2222222
AAAAAAAAAAAAAAAAAAAAAAAAAAAAAAAAAAAAAAAAAAAAAAAAAAAAAAAAAA222222
AAAAAAAAAAAAAAAAAAAAAAAAAAAAAAAAAAAAAAAAAAAAAAAAAAAAAAAAAAA22222
AAAAAAAAAAAAAAAAAAAAAAAAAAAAAAAAAAAAAAAAAAAAAAAAAAAAAAAAAAAA2222
AAAAAAAAAAAAAAAAAAAAAAAAAAAAAAAAAAAAAAAAAAAAAAAAAAAAAAAAAAAAA222
AAAAAAAAAAAAAAAAAAAAAAAAAAAAAAAAAAAAAAAAAAAAAAAAAAAAAAAAAAAAAA22
AAAAAAAAAAAAAAAAAAAAAAAAAAAAAAAAAAAAAAAAAAAAAAAAAAAAAAAAAAAAAAA2
AAAAAAAAAAAAAAAAAAAAAAAAAAAAAAAAAAAAAAAAAAAAAAAAAAAAAAAAAAAAAAAA
AAAAAAAAAAAAAAAAAAAAIAAAAAAAAAAAAAAAAAAAAAAAAAAAAAAAAAAAAAAAAAAA
AAAAAAAAAAAAAAAAAAAAIIAAAAAAAAAAAAAAAAAAAAAAAAAAAAAAAAAAAAAAAAAA
AAAAAAAAAAAAAAAAAAAAIIIAAAAAAAAAAAAAAAAAAAAAAAAAAAAAAAAAAAAAAAAA
AAAAAAAAAAAAAAAAAAAAIIIIAAAAAAAAAAAAAAAAAAAAAAAAAAAAAAAAAAAAAAAA
AAAAAAAAAAAAAAAAAAAAIIIIIAAAAAAAAAAAAAAAAAAAAAAAAAAAAAAAAAAAAAAA
AAAAAAAAAAAAAAAAAAAAIIIIIIAAAAAAAAAAAAAAAAAAAAAAAAAAAAAAAAAAAAAA
AAAAAAAAAAAAAAAAAAAAIIIIIIIAAAAAAAAAAAAAAAAAAAAAAAAAAAAAAAAAAAAA
AAAAAAAAAAAAAAAAAAAAIIIIIIIIAAAAAAAAAAAAAAAAAAAAAAAAAAAAAAAAAAAA
AAAAAAAAAAAAAAAAAAAAIIIIIIIIIAAAAAAAAAAAAAAAAAAAAAAAAAAAAAAAAAAA
AAAAAAAAAAAAAAAAAAAAIIIIIIIIIIAAAAAAAAAAAAAAAAAAAAAAAAAAAAAAAAAA
AAAAAAAAAAAAAAAAAAAAIIIIIIIIIIIAAAAAAAAAAAAAAAAAAAAAAAAAAAAAAAAA
AAAAAAAAAAAAAAAAAAAAIIIIIIIIIIIIAAAAAAAAAAAAAAAAAAAAAAAAAAAAAAAA
AAAAAAAAAAAAAAAAAAAAIIIIIIIIIIIIIAAAAAAAAAAAAAAAAAAAAAAAAAAAAAAA
AAAAAAAAAAAAAAAAAAAAIIIIIIIIIIIIIIAAAAAAAAAAAAAAAAAAAAAAAAAAAAAA
AAAAAAAAAAAAAAAAAAAAIIIIIIIIIIIIIIIAAAAAAAAAAAAAAAAAAAAAAAAAAAAA
AAAAAAAAAAAAAAAAAAAAIIIIIIIIIIIIIIIIAAAAAAAAAAAAAAAAAAAAAAAAAAAA
AAAAAAAAAAAAAAAAAAAAIIIIIIIIIIIIIIIIIAAAAAAAAAAAAAAAAAAAAAAAAAAA
AAAAAAAAAAAAAAAAAAAAIIIIIIIIIIIIIIIIIIAAAAAAAAAAAAAAAAAAAAAAAAAA
AAAAAAAAAAAAAAAAAAAAIIIIIIIIIIIIIIIIIIIAAAAAAAAAAAAAAAAAAAAAAAAA
AAAAAAAAAAAAAAAAAAAAIIIIIIIIIIIIIIIIIIIIAAAAAAAAAAAAAAAAAAAAAAAA
AAAAAAAAAAAAAAAAAAAAIIIIIIIIIIIIIIIIIIIIIAAAAAAAAAAAAAAAAAAAAAAA
AAAAAAAAAAAAAAAAAAAAIIIIIIIIIIIIIIIIIIIIIIAAAAAAAAAAAAAAAAAAAAAA
AAAAAAAAAAAAAAAAAAAAIIIIIIIIIIIIIIIIIIIIIIIAAAAAAAAAAAAAAAAAAAAA
AAAAAAAAAAAAAAAAAAAAIIIIIIIIIIIIIIIIIIIIIIIIAAAAAAAAAAAAAAAAAAAA
AAAAAAAAAAAAAAAAAAAAIIIIIIIIIIIIIIIIIIIIIIIIIAAAAAAAAAAAAAAAAAAA
AAAAAAAAAAAAAAAAAAAAIIIIIIIIIIIIIIIIIIIIIIIIIIAAAAAAAAAAAAAAAAAA
AAAAAAAAAAAAAAAAAAAAIIIIIIIIIIIIIIIIIIIIIIIIIIIAAAAAAAAAAAAAAAAA
AAAAAAAAAAAAAAAAAAAAIIIIIIIIIIIIIIIIIIIIIIIIIIIIAAAAAAAAAAAAAAAA
AAAAAAAAAAAAAAAAAAAAIIIIIIIIIIIIIIIIIIIIIIIIIIIIIAAAAAAAAAAAAAAA
AAAAAAAAAAAAAAAAAAAAIIIIIIIIIIIIIIIIIIIIIIIIIIIIIIAAAAAAAAAAAAAA
AAAAAAAAAAAAAAAAAAAAIIIIIIIIIIIIIIIIIIIIIIIIIIIIIIIAAAAAAAAAAAAA
AAAAAAAAAAAAAAAAAAAAIIIIIIIIIIIIIIIIIIIIIIIIIIIIIIIIAAAAAAAAAAAA
AAAAAAAAAAAAAAAAAAAAIIIIIIIIIIIIIIIIIIIIIIIIIIIIIIIIIAAAAAAAAAAA
AAAAAAAAAAAAAAAAAAAAIIIIIIIIIIIIIIIIIIIIIIIIIIIIIIIIIIAAAAAAAAAA
AAAAAAAAAAAAAAAAAAAAIIIIIIIIIIIIIIIIIIIIIIIIIIIIIIIIIIIAAAAAAAAA
AAAAAAAAAAAAAAAAAAAAIIIIIIIIIIIIIIIIIIIIIIIIIIIIIIIIIIIIAAAAAAAA
AAAAAAAAAAAAAAAAAAAAIIIIIIIIIIIIIIIIIIIIIIIIIIIIIIIIIIIIIAAAAAAA
AAAAAAAAAAAAAAAAAAAAIIIIIIIIIIIIIIIIIIIIIIIIIIIIIIIIIIIIIIAAAAAA
AAAAAAAAAAAAAAAAAAAAIIIIIIIIIIIIIIIIIIIIIIIIIIIIIIIIIIIIIIIAAAAA
AAAAAAAAAAAAAAAAAAAAIIIIIIIIIIIIIIIIIIIIIIIIIIIIIIIIIIIIIIIIAAAA
AAAAAAAAAAAAAAAAAAAAIIIIIIIIIIIIIIIIIIIIIIIIIIIIIIIIIIIIIIIIIAAA
AAAAAAAAAAAAAAAAAAAAIIIIIIIIIIIIIIIIIIIIIIIIIIIIIIIIIIIIIIIIIIAA
AAAAAAAAAAAAAAAAAAAAIIIIIIIIIIIIIIIIIIIIIIIIIIIIIIIIIIIIIIIIIIIA
AAAAAAAAAAAAAAAAAAAAIIIIIIIIIIIIIIIIIIIIIIIIIIIIIIIIIIIIIIIIIIII
AAAAAAIAAAAAAAAAAAAAIIIIIIIIIIIIIIIIIIIIIIIIIIIIIIIIIIIIIIIIIIII
AAAAAAIIAAAAAAAAAAAAIIIIIIIIIIIIIIIIIIIIIIIIIIIIIIIIIIIIIIIIIIII
AAAAAAIIIAAAAAAAAAAAIIIIIIIIIIIIIIIIIIIIIIIIIIIIIIIIIIIIIIIIIIII
AAAAAAIIIIAAAAAAAAAAIIIIIIIIIIIIIIIIIIIIIIIIIIIIIIIIIIIIIIIIIIII
AAAAAAIIIIIAAAAAAAAAIIIIIIIIIIIIIIIIIIIIIIIIIIIIIIIIIIIIIIIIIIII
AAAAAAIIIIIIAAAAAAAAIIIIIIIIIIIIIIIIIIIIIIIIIIIIIIIIIIIIIIIIIIII
AAAAAAIIIIIIIAAAAAAAIIIIIIIIIIIIIIIIIIIIIIIIIIIIIIIIIIIIIIIIIIII
AAAAAAIIIIIIIIAAAAAAIIIIIIIIIIIIIIIIIIIIIIIIIIIIIIIIIIIIIIIIIIII
AAAAAAIIIIIIIIIAAAAAIIIIIIIIIIIIIIIIIIIIIIIIIIIIIIIIIIIIIIIIIIII
AAAAAAIIIIIIIIIIAAAAIIIIIIIIIIIIIIIIIIIIIIIIIIIIIIIIIIIIIIIIIIII
AAAAAAIIIIIIIIIIIAAAIIIIIIIIIIIIIIIIIIIIIIIIIIIIIIIIIIIIIIIIIIII
AAAAAAIIIIIIIIIIIIAAIIIIIIIIIIIIIIIIIIIIIIIIIIIIIIIIIIIIIIIIIIII
AAAAAAIIIIIIIIIIIIIAIIIIIIIIIIIIIIIIIIIIIIIIIIIIIIIIIIIIIIIIIIII
AAAAAAIIIIIIIIIIIIIIIIIIIIIIIIIIIIIIIIIIIIIIIIIIIIIIIIIIIIIIIIII
AAAAAA2IIIII2IIIII4IIIII4IIIIIIIIIIIIIIIIIIIIIIIIIIIIIIIIIIIIIII
AAAAAA22IIII22IIII44IIII44IIIIIIIIIIIIIIIIIIIIIIIIIIIIIIIIIIIIII
AAAAAA222III222III444III444IIIIIIIIIIIIIIIIIIIIIIIIIIIIIIIIIIIII
AAAAAA2222II2222II4444II4444IIIIIIIIIIIIIIIIIIIIIIIIIIIIIIIIIIII
AAAAAA22222I22222I44444I44444IIIIIIIIIIIIIIIIIIIIIIIIIIIIIIIIIII
AAAAAA222222222222444444444444IIIIIIIIIIIIIIIIIIIIIIIIIIIIIIIIII
AAAAAAA222222222222444444444444IIIIIIIIIIIIIIIIIIIIIIIIIIIIIIIII
AAAAAAAA222222222222444444444444IIIIIIIIIIIIIIIIIIIIIIIIIIIIIIII
AAAAAAAAA222222222222444444444444IIIIIIIIIIIIIIIIIIIIIIIIIIIIIII
AAAAAAAAAA222222222222444444444444IIIIIIIIIIIIIIIIIIIIIIIIIIIIII
AAAAAAAAAAA222222222222444444444444IIIIIIIIIIIIIIIIIIIIIIIIIIIII
AAAAAAAAAAAA222222222222444444444444IIIIIIIIIIIIIIIIIIIIIIIIIIII
AAAAAAAAAAAAA222222222222444444444444IIIIIIIIIIIIIIIIIIIIIIIIIII
AAAAAAAAAAAAAA222222222222444444444444IIIIIIIIIIIIIIIIIIIIIIIIII
AAAAAAAAAAAAAAA222222222222444444444444IIIIIIIIIIIIIIIIIIIIIIIII
AAAAAAAAAAAAAAAA222222222222444444444444IIIIIIIIIIIIIIIIIIIIIIII
AAAAAAAAAAAAAAAAA222222222222444444444444IIIIIIIIIIIIIIIIIIIIIII
AAAAAAAAAAAAAAAAAA222222222222444444444444IIIIIIIIIIIIIIIIIIIIII
AAAAAAAAAAAAAAAAAAA222222222222444444444444IIIIIIIIIIIIIIIIIIIII
AAAAAAAAAAAAAAAAAAAA222222222222444444444444IIIIIIIIIIIIIIIIIIII
AAAAAAAAAAAAAAAAAAAAA222222222222444444444444IIIIIIIIIIIIIIIIIII
AAAAAAAAAAAAAAAAAAAAAA222222222222444444444444IIIIIIIIIIIIIIIIII
AAAAAAAAAAAAAAAAAAAAAAA222222222222444444444444IIIIIIIIIIIIIIIII
AAAAAAAAAAAAAAAAAAAAAAAA222222222222444444444444IIIIIIIIIIIIIIII
AAAAAAAAAAAAAAAAAAAAAAAAA222222222222444444444444IIIIIIIIIIIIIII
AAAAAAAAAAAAAAAAAAAAAAAAAA222222222222444444444444IIIIIIIIIIIIII
AAAAAAAAAAAAAAAAAAAAAAAAAAA222222222222444444444444IIIIIIIIIIIII
AAAAAAAAAAAAAAAAAAAAAAAAAAAA222222222222444444444444IIIIIIIIIIII
AAAAAAAAAAAAAAAAAAAAAAAAAAAAA222222222222444444444444IIIIIIIIIII
AAAAAAAAAAAAAAAAAAAAAAAAAAAAAA222222222222444444444444IIIIIIIIII
AAAAAAAAAAAAAAAAAAAAAAAAAAAAAAA222222222222444444444444IIIIIIIII
AAAAAAAAAAAAAAAAAAAAAAAAAAAAAAAA222222222222444444444444IIIIIIII
AAAAAAAAAAAAAAAAAAAAAAAAAAAAAAAAA222222222222444444444444IIIIIII
AAAAAAAAAAAAAAAAAAAAAAAAAAAAAAAAAA222222222222444444444444IIIIII
AAAAAAAAAAAAAAAAAAAAAAAAAAAAAAAAAAA222222222222444444444444IIIII
AAAAAAAAAAAAAAAAAAAAAAAAAAAAAAAAAAAA222222222222444444444444IIII
AAAAAAAAAAAAAAAAAAAAAAAAAAAAAAAAAAAAA222222222222444444444444III
AAAAAAAAAAAAAAAAAAAAAAAAAAAAAAAAAAAAAA222222222222444444444444II
AAAAAAAAAAAAAAAAAAAAAAAAAAAAAAAAAAAAAAA222222222222444444444444I
AAAAAAAAAAAAAAAAAAAAAAAAAAAAAAAAAAAAAAAA222222222222444444444444
AAAAAAAAAAAAAAAAAAAAAAAAAAAAAAAAAAAAAAAAA22222222222244444444444
AAAAAAAAAAAAAAAAAAAAAAAAAAAAAAAAAAAAAAAAAA2222222222224444444444
AAAAAAAAAAAAAAAAAAAAAAAAAAAAAAAAAAAAAAAAAAA222222222222444444444
AAAAAAAAAAAAAAAAAAAAAAAAAAAAAAAAAAAAAAAAAAAA22222222222244444444
AAAAAAAAAAAAAAAAAAAAAAAAAAAAAAAAAAAAAAAAAAAAA2222222222224444444
AAAAAAAAAAAAAAAAAAAAAAAAAAAAAAAAAAAAAAAAAAAAAA222222222222444444
AAAAAAAAAAAAAAAAAAAAAAAAAAAAAAAAAAAAAAAAAAAAAAA22222222222244444
AAAAAAAAAAAAAAAAAAAAAAAAAAAAAAAAAAAAAAAAAAAAAAAA2222222222224444
AAAAAAAAAAAAAAAAAAAAAAAAAAAAAAAAAAAAAAAAAAAAAAAAA222222222222444
AAAAAAAAAAAAAAAAAAAAAAAAAAAAAAAAAAAAAAAAAAAAAAAAAA22222222222244
AAAAAAAAAAAAAAAAAAAAAAAAAAAAAAAAAAAAAAAAAAAAAAAAAAA2222222222224
AAAAAAAAAAAAAAAAAAAAAAAAAAAAAAAAAAAAAAAAAAAAAAAAAAAA222222222222
AAAAAAAAAAAAAAAAAAAAAAAAAAAAAAAAAAAAAAAAAAAAAAAAAAAAA22222222222
AAAAAAAAAAAAAAAAAAAAAAAAAAAAAAAAAAAAAAAAAAAAAAAAAAAAAA2222222222
AAAAAAAAAAAAAAAAAAAAAAAAAAAAAAAAAAAAAAAAAAAAAAAAAAAAAAA222222222
AAAAAAAAAAAAAAAAAAAAAAAAAAAAAAAAAAAAAAAAAAAAAAAAAAAAAAAA22222222
AAAAAAAAAAAAAAAAAAAAAAAAAAAAAAAAAAAAAAAAAAAAAAAAAAAAAAAAA2222222
AAAAAAAAAAAAAAAAAAAAAAAAAAAAAAAAAAAAAAAAAAAAAAAAAAAAAAAAAA222222
AAAAAAAAAAAAAAAAAAAAAAAAAAAAAAAAAAAAAAAAAAAAAAAAAAAAAAAAAAA22222
AAAAAAAAAAAAAAAAAAAAAAAAAAAAAAAAAAAAAAAAAAAAAAAAAAAAAAAAAAAA2222
AAAAAAAAAAAAAAAAAAAAAAAAAAAAAAAAAAAAAAAAAAAAAAAAAAAAAAAAAAAAA222
AAAAAAAAAAAAAAAAAAAAAAAAAAAAAAAAAAAAAAAAAAAAAAAAAAAAAAAAAAAAAA22
AAAAAAAAAAAAAAAAAAAAAAAAAAAAAAAAAAAAAAAAAAAAAAAAAAAAAAAAAAAAAAA2
AAAAAAAAAAAAAAAAAAAAAAAAAAAAAAAAAAAAAAAAAAAAAAAAAAAAAAAAAAAAAAAA
AAAAAAAAAAAAAAAAAAAAAAAAAAAAAAAAAAAAAAAAAAAAAAAIAAAAAAAAAAAAAAAA
AAAAAAAAAAAAAAAAAAAAAAAAAAAAAAAAAAAAAAAAAAAAAAAIAAAAIAAAAAAAAAAA
AAAAAAAAAAAAAAAAAAAAAAAAAAAAAAAAAAAAAAAAAAAAAAAIAAAAIIAAAAAAAAAA
AAAAAAAAAAAAAAAAAAAAAAAAAAAAAAAAAAAAAAAAAAAAAAAIAAAAIIIAAAAAAAAA
AAAAAAAAAAAAAAAAAAAAAAAAAAAAAAAAAAAAAAAAAAAAAAAIAAAAIIIIAAAAAAAA
AAAAAAAAAAAAAAAAAAAAAAAAAAAAAAAAAAAAAAAAAAAAAAAIAAAAIIIIIAAAAAAA
AAAAAAAAAAAAAAAAAAAAAAAAAAAAAAAAAAAAAAAAAAAAAAAIAAAAIIIIIIAAAAAA
AAAAAAAAAAAAAAAAAAAAAAAAAAAAAAAAAAAAAAAAAAAAAAAIAAAAIIIIIIIAAAAA
AAAAAAAAAAAAAAAAAAAAAAAAAAAAAAAAAAAAAAAAAAAAAAAIAAAAIIIIIIIIAAAA
AAAAAAAAAAAAAAAAAAAAAAAAAAAAAAAAAAAAAAAAAAAAAAAIAAAAIIIIIIIIIAAA
AAAAAAAAAAAAAAAAAAAAAAAAAAAAAAAAAAAAAAAAAAAAAAAIAAAAIIIIIIIIIIAA
AAAAAAAAAAAAAAAAAAAAAAAAAAAAAAAAAAAAAAAAAAAAAAAIAAAAIIIIIIIIIIIA
AAAAAAAAAAAAAAAAAAAAAAAAAAAAAAAAAAAAAAAAAAAAAAAIAAAAIIIIIIIIIIII
AAAAAAAAAAAAAAAAAAAAAAAAAAAAAAAAAAAAAAAAAAAAAAAIAIAAIIIIIIIIIIII
AAAAAAAAAAAAAAAAAAAAAAAAAAAAAAAAAAAAAAAAAAAAAAAIAIAIIIIIIIIIIIII
AAAAAAAAAAAAAAAAAAAAAAAAAAAAAAAAIAAAAAAAAAAAAAAIAIAIIIIIIIIIIIII
AAAAAAAAAAAAAAAAAAAAAAAAAAAAAAAAIIAAAAAAAAAAAAAIAIAIIIIIIIIIIIII
AAAAAAAAAAAAAAAAAAAAAAAAAAAAAAAAIIAIAAAAAAAAAAAIAIAIIIIIIIIIIIII
AAAAAAAAAAAAAAAAAAAAAAAAAAAAAAAAIIAIIAAAAAAAAAAIAIAIIIIIIIIIIIII
AAAAAAAAAAAAAAAAAAAAAAAAAAAAAAAAIIAIIIAAAAAAAAAIAIAIIIIIIIIIIIII
AAAAAAAAAAAAAAAAAAAAAAAAAAAAAAAAIIAIIIIAAAAAAAAIAIAIIIIIIIIIIIII
AAAAAAAAAAAAAAAAAAAAAAAAAAAAAAAAIIAIIIIIAAAAAAAIAIAIIIIIIIIIIIII
AAAAAAAAAAAAAAAAAAAAAAAAAAAAAAAAIIAIIIIIAIAAAAAIAIAIIIIIIIIIIIII
AAAAAAAAAAAAAAAAAAAAAAAAAAAAAAAAIIAIIIIIAIIAAAAIAIAIIIIIIIIIIIII
AAAAAAAAAAAAAAAAAAAAAAAAAAAAAAAAIIAIIIIIAIIIAAAIAIAIIIIIIIIIIIII
AAAAAAAAAAAAAAAAAAAAAAAAAAAAAAAAIIAIIIIIAIIIIAAIAIAIIIIIIIIIIIII
AAAAAAAAAAAAAAAAAAAAAAAAAAAAAAAAIIIIIIIIAIIIIAAIAIAIIIIIIIIIIIII
AAAAAAAAAAAAAAAAAAAAAAAAAAAAAAAAIIIIIIIIIIIIIAAIAIAIIIIIIIIIIIII
AAAAAAAAAAAAAAAAAAAAAAAAAAAAAAAAIIIIIIIIIIIIIIAIAIAIIIIIIIIIIIII
AAAAAAAAAAAAAAAAAAAAIAAAAAAAAAAAIIIIIIIIIIIIIIAIAIAIIIIIIIIIIIII
AAAAAAAAAAAAAAAAAAAAIIAAAAAAAAAAIIIIIIIIIIIIIIAIAIAIIIIIIIIIIIII
AAAAAAAAAAAAAAAAAAAAIIIAAAAAAAAAIIIIIIIIIIIIIIAIAIAIIIIIIIIIIIII
AAAAAAAAAAAAAAAAAAAAIIIIAAAAAAAAIIIIIIIIIIIIIIAIAIAIIIIIIIIIIIII
AAAAAAAAAAAAAAAAAAAAIIIIIAAAAAAAIIIIIIIIIIIIIIAIAIAIIIIIIIIIIIII
AAAAAAAAAAAAAAAAAAAAIIIIIIAAAAAAIIIIIIIIIIIIIIAIAIAIIIIIIIIIIIII
AAAAAAAAAAAAAAAAAAAAIIIIIIIAAAAAIIIIIIIIIIIIIIAIAIAIIIIIIIIIIIII
AAAAAAAAAAAAAAAAAAAAIIIIIIIIAAAAIIIIIIIIIIIIIIAIAIAIIIIIIIIIIIII
AAAAAAAAAAAAAAAAAAAAIIIIIIIIIAAAIIIIIIIIIIIIIIAIAIAIIIIIIIIIIIII
AAAAAAIAAAAAAAAAAAAAIIIIIIIIIAAAIIIIIIIIIIIIIIAIAIAIIIIIIIIIIIII
AAAAAAIAIAAAAAAAAAAAIIIIIIIIIAAAIIIIIIIIIIIIIIAIAIAIIIIIIIIIIIII
AAAAAAIAIIAAAAAAAAAAIIIIIIIIIAAAIIIIIIIIIIIIIIAIAIAIIIIIIIIIIIII
AAAAAAIAIIAAIAAAAAAAIIIIIIIIIAAAIIIIIIIIIIIIIIAIAIAIIIIIIIIIIIII
AAAAAAIIIIAAIAAAAAAAIIIIIIIIIAAAIIIIIIIIIIIIIIAIAIAIIIIIIIIIIIII
AAAAAAIIIIIAIAAAAAAAIIIIIIIIIAAAIIIIIIIIIIIIIIAIAIAIIIIIIIIIIIII
AAAAAAIIIIIAIIAAAAAAIIIIIIIIIAAAIIIIIIIIIIIIIIAIAIAIIIIIIIIIIIII
AAAAAAIIIIIIIIAAAAAAIIIIIIIIIAAAIIIIIIIIIIIIIIAIAIAIIIIIIIIIIIII
AAAAAAIIIIIIIIIAAAAAIIIIIIIIIAAAIIIIIIIIIIIIIIAIAIAIIIIIIIIIIIII
AAAAAAIIIIIIIIIAIAAAIIIIIIIIIAAAIIIIIIIIIIIIIIAIAIAIIIIIIIIIIIII
AAAAAAIIIIIIIIIIIAAAIIIIIIIIIAAAIIIIIIIIIIIIIIAIAIAIIIIIIIIIIIII
AAAAAAIIIIIIIIIIIIAAIIIIIIIIIAAAIIIIIIIIIIIIIIAIAIAIIIIIIIIIIIII
AAAAAAIIIIIIIIIIIIIAIIIIIIIIIAAAIIIIIIIIIIIIIIAIAIAIIIIIIIIIIIII
AAAAAAIIIIIIIIIIIIIIIIIIIIIIIAAAIIIIIIIIIIIIIIAIAIAIIIIIIIIIIIII
AAAAAA2IIIII2IIIII4IIIII4IIIIAAAIIIIIIIIIIIIIIAIAIAIIIIIIIIIIIII
AAAAAA22IIII22IIII44IIII44IIIAAAIIIIIIIIIIIIIIAIAIAIIIIIIIIIIIII
AAAAAA222III222III444III444IIAAAIIIIIIIIIIIIIIAIAIAIIIIIIIIIIIII
AAAAAA2222II2222II4444II4444IAAAIIIIIIIIIIIIIIAIAIAIIIIIIIIIIIII
AAAAAA22222I22222I44444I44444AAAIIIIIIIIIIIIIIAIAIAIIIIIIIIIIIII
AAAAAA22222222222244444444444AAAIIIIIIIIIIIIIIAIAIAIIIIIIIIIIIII
AAAAAAA2222222222224444444444AAAIIIIIIIIIIIIIIAIAIAIIIIIIIIIIIII
AAAAAAAA222222222222444444444AAAIIIIIIIIIIIIIIAIAIAIIIIIIIIIIIII
AAAAAAAAA22222222222244444444AAA4IIIIIIIIIIIIIAIAIAIIIIIIIIIIIII
AAAAAAAAAA2222222222224444444AAA44IIIIIIIIIIIIAIAIAIIIIIIIIIIIII
AAAAAAAAAAA222222222222444444AAA444IIIIIIIIIIIAIAIAIIIIIIIIIIIII
AAAAAAAAAAAA22222222222244444AAA4444IIIIIIIIIIAIAIAIIIIIIIIIIIII
AAAAAAAAAAAAA2222222222224444AAA44444IIIIIIIIIAIAIAIIIIIIIIIIIII
AAAAAAAAAAAAAA222222222222444AAA444444IIIIIIIIAIAIAIIIIIIIIIIIII
AAAAAAAAAAAAAAA22222222222244AAA4444444IIIIIIIAIAIAIIIIIIIIIIIII
AAAAAAAAAAAAAAAA2222222222224AAA44444444IIIIIIAIAIAIIIIIIIIIIIII
AAAAAAAAAAAAAAAAA222222222222AAA444444444IIIIIAIAIAIIIIIIIIIIIII
AAAAAAAAAAAAAAAAAA22222222222AAA4444444444IIIIAIAIAIIIIIIIIIIIII
AAAAAAAAAAAAAAAAAAA2222222222AAA44444444444IIIAIAIAIIIIIIIIIIIII
AAAAAAAAAAAAAAAAAAAA222222222AAA444444444444IIAIAIAIIIIIIIIIIIII
AAAAAAAAAAAAAAAAAAAAA22222222AAA2444444444444IAIAIAIIIIIIIIIIIII
AAAAAAAAAAAAAAAAAAAAAA2222222AAA22444444444444AIAIAIIIIIIIIIIIII
AAAAAAAAAAAAAAAAAAAAAAA222222AAA22244444444444AIAIAIIIIIIIIIIIII
AAAAAAAAAAAAAAAAAAAAAAAA22222AAA22224444444444A4AIAIIIIIIIIIIIII
AAAAAAAAAAAAAAAAAAAAAAAAA2222AAA22222444444444A4AIAIIIIIIIIIIIII
AAAAAAAAAAAAAAAAAAAAAAAAAA222AAA22222244444444A4A4AIIIIIIIIIIIII
AAAAAAAAAAAAAAAAAAAAAAAAAAA22AAA22222224444444A4A4AIIIIIIIIIIIII
AAAAAAAAAAAAAAAAAAAAAAAAAAAA2AAA22222222444444A4A4A4IIIIIIIIIIII
AAAAAAAAAAAAAAAAAAAAAAAAAAAAAAAA22222222244444A4A4A44IIIIIIIIIII
AAAAAAAAAAAAAAAAAAAAAAAAAAAAAAAA22222222224444A4A4A444IIIIIIIIII
AAAAAAAAAAAAAAAAAAAAAAAAAAAAAAAA22222222222444A4A4A4444IIIIIIIII
AAAAAAAAAAAAAAAAAAAAAAAAAAAAAAAA22222222222244A4A4A44444IIIIIIII
AAAAAAAAAAAAAAAAAAAAAAAAAAAAAAAAA2222222222224A4A4A444444IIIIIII
AAAAAAAAAAAAAAAAAAAAAAAAAAAAAAAAAA222222222222A4A4A4444444IIIIII
AAAAAAAAAAAAAAAAAAAAAAAAAAAAAAAAAAA22222222222A4A4A44444444IIIII
AAAAAAAAAAAAAAAAAAAAAAAAAAAAAAAAAAAA2222222222A2A4A444444444IIII
AAAAAAAAAAAAAAAAAAAAAAAAAAAAAAAAAAAAA222222222A2A4A4444444444III
AAAAAAAAAAAAAAAAAAAAAAAAAAAAAAAAAAAAAA22222222A2A2A44444444444II
AAAAAAAAAAAAAAAAAAAAAAAAAAAAAAAAAAAAAAA2222222A2A2A444444444444I
AAAAAAAAAAAAAAAAAAAAAAAAAAAAAAAAAAAAAAAA222222A2A2A2444444444444
AAAAAAAAAAAAAAAAAAAAAAAAAAAAAAAAAAAAAAAAA22222A2A2A2244444444444
AAAAAAAAAAAAAAAAAAAAAAAAAAAAAAAAAAAAAAAAAA2222A2A2A2224444444444
AAAAAAAAAAAAAAAAAAAAAAAAAAAAAAAAAAAAAAAAAAA222A2A2A2222444444444
AAAAAAAAAAAAAAAAAAAAAAAAAAAAAAAAAAAAAAAAAAAA22A2A2A2222244444444
AAAAAAAAAAAAAAAAAAAAAAAAAAAAAAAAAAAAAAAAAAAAA2A2A2A2222224444444
AAAAAAAAAAAAAAAAAAAAAAAAAAAAAAAAAAAAAAAAAAAAAAA2A2A2222222444444
AAAAAAAAAAAAAAAAAAAAAAAAAAAAAAAAAAAAAAAAAAAAAAA2A2A2222222244444
AAAAAAAAAAAAAAAAAAAAAAAAAAAAAAAAAAAAAAAAAAAAAAAAA2A2222222224444
AAAAAAAAAAAAAAAAAAAAAAAAAAAAAAAAAAAAAAAAAAAAAAAAA2A2222222222444
AAAAAAAAAAAAAAAAAAAAAAAAAAAAAAAAAAAAAAAAAAAAAAAAAAA2222222222244
AAAAAAAAAAAAAAAAAAAAAAAAAAAAAAAAAAAAAAAAAAAAAAAAAAA2222222222224
AAAAAAAAAAAAAAAAAAAAAAAAAAAAAAAAAAAAAAAAAAAAAAAAAAAA222222222222
AAAAAAAAAAAAAAAAAAAAAAAAAAAAAAAAAAAAAAAAAAAAAAAAAAAAA22222222222
AAAAAAAAAAAAAAAAAAAAAAAAAAAAAAAAAAAAAAAAAAAAAAAAAAAAAA2222222222
AAAAAAAAAAAAAAAAAAAAAAAAAAAAAAAAAAAAAAAAAAAAAAAAAAAAAAA222222222
AAAAAAAAAAAAAAAAAAAAAAAAAAAAAAAAAAAAAAAAAAAAAAAAAAAAAAAA22222222
AAAAAAAAAAAAAAAAAAAAAAAAAAAAAAAAAAAAAAAAAAAAAAAAAAAAAAAAA2222222
AAAAAAAAAAAAAAAAAAAAAAAAAAAAAAAAAAAAAAAAAAAAAAAAAAAAAAAAAA222222
AAAAAAAAAAAAAAAAAAAAAAAAAAAAAAAAAAAAAAAAAAAAAAAAAAAAAAAAAAA22222
AAAAAAAAAAAAAAAAAAAAAAAAAAAAAAAAAAAAAAAAAAAAAAAAAAAAAAAAAAAA2222
AAAAAAAAAAAAAAAAAAAAAAAAAAAAAAAAAAAAAAAAAAAAAAAAAAAAAAAAAAAAA222
AAAAAAAAAAAAAAAAAAAAAAAAAAAAAAAAAAAAAAAAAAAAAAAAAAAAAAAAAAAAAA22
AAAAAAAAAAAAAAAAAAAAAAAAAAAAAAAAAAAAAAAAAAAAAAAAAAAAAAAAAAAAAAA2
AAAAAAAAAAAAAAAAAAAAAAAAAAAAAAAAAAAAAAAAAAAAAAAAAAAAAAAAAAAAAAAA
AAAAAAAAAAAAAAAAAAAAAAIAAAAAAAAAAAAAAAAAAAAAAAAAAAAAAAAAAAAAAAAA
AAAAAAAAAAAAAAAAAAAAAAIIAAAAAAAAAAAAAAAAAAAAAAAAAAAAAAAAAAAAAAAA
AAAAAAAAAAAAAAAAAAAAAAIIIAAAAAAAAAAAAAAAAAAAAAAAAAAAAAAAAAAAAAAA
AAAAAAAAAAAAAAAAAAAAIAIIIAAAAAAAAAAAAAAAAAAAAAAAAAAAAAAAAAAAAAAA
AAAAAAAAAAAAAAAAAAAAIIIIIAAAAAAAAAAAAAAAAAAAAAAAAAAAAAAAAAAAAAAA
AAAAAAAAAAAAAAAAAAAAIIIIIIAAAAAAAAAAAAAAAAAAAAAAAAAAAAAAAAAAAAAA
AAAAAAAAAAAAAAAAAAAAIIIIIIIAAAAAAAAAAAAAAAAAAAAAAAAAAAAAAAAAAAAA
AAAAAAAAAAAAAAAAAAAAIIIIIIIIAAAAAAAAAAAAAAAAAAAAAAAAAAAAAAAAAAAA
AAAAAAAAAAAAAAAAAAAAIIIIIIIIIAAAAAAAAAAAAAAAAAAAAAAAAAAAAAAAAAAA
AAAAAAAAAAAAAAAAAAAAIIIIIIIIIIAAAAAAAAAAAAAAAAAAAAAAAAAAAAAAAAAA
AAAAAAAAAAAAAAAAAAAAIIIIIIIIIIIAAAAAAAAAAAAAAAAAAAAAAAAAAAAAAAAA
AAAAAAAAAAAAAAAAAAAAIIIIIIIIIIIIAAAAAAAAAAAAAAAAAAAAAAAAAAAAAAAA
AAAAAAAAAAAAAAAAAAAAIIIIIIIIIIIIIAAAAAAAAAAAAAAAAAAAAAAAAAAAAAAA
AAAAAAAAAAAAAAAAAAAAIIIIIIIIIIIIIIAAAAAAAAAAAAAAAAAAAAAAAAAAAAAA
AAAAAAAAAAAAAAAAAAAAIIIIIIIIIIIIIIIAAAAAAAAAAAAAAAAAAAAAAAAAAAAA
AAAAAAAAAAAAAAAAAAAAIIIIIIIIIIIIIIIIAAAAAAAAAAAAAAAAAAAAAAAAAAAA
AAAAAAAAAAAAAAAAAAAAIIIIIIIIIIIIIIIIIAAAAAAAAAAAAAAAAAAAAAAAAAAA
AAAAAAAAAAAAAAAAAAAAIIIIIIIIIIIIIIIIIIAAAAAAAAAAAAAAAAAAAAAAAAAA
AAAAAAAAAAAAAAAAAAAAIIIIIIIIIIIIIIIIIIIAAAAAAAAAAAAAAAAAAAAAAAAA
AAAAAAAAAAAAAAAAAAAAIIIIIIIIIIIIIIIIIIIIAAAAAAAAAAAAAAAAAAAAAAAA
AAAAAAAAAAAAAAAAAAAAIIIIIIIIIIIIIIIIIIIIIAAAAAAAAAAAAAAAAAAAAAAA
AAAAAAAAAAAAAAAAAAAAIIIIIIIIIIIIIIIIIIIIIIAAAAAAAAAAAAAAAAAAAAAA
AAAAAAAAAAAAAAAAAAAAIIIIIIIIIIIIIIIIIIIIIIIAAAAAAAAAAAAAAAAAAAAA
AAAAAAAAAAAAAAAAAAAAIIIIIIIIIIIIIIIIIIIIIIIIAAAAAAAAAAAAAAAAAAAA
AAAAAAAAAAAAAAAAAAAAIIIIIIIIIIIIIIIIIIIIIIIIIAAAAAAAAAAAAAAAAAAA
AAAAAAAAAAAAAAAAAAAAIIIIIIIIIIIIIIIIIIIIIIIIIIAAAAAAAAAAAAAAAAAA
AAAAAAAAAAAAAAAAAAAAIIIIIIIIIIIIIIIIIIIIIIIIIIAAAAIAAAAAAAAAAAAA
AAAAAAAAAAAAAAAAAAAAIIIIIIIIIIIIIIIIIIIIIIIIIIAAAAIIAAAAAAAAAAAA
AAAAAAAAAAAAAAAAAAAAIIIIIIIIIIIIIIIIIIIIIIIIIIAAAAIIIAAAAAAAAAAA
AAAAAAAAAAAAAAAAAAAAIIIIIIIIIIIIIIIIIIIIIIIIIIAAAAIIIIAAAAAAAAAA
AAAAAAAAAAAAAAAAAAAAIIIIIIIIIIIIIIIIIIIIIIIIIIAAAAIIIIIAAAAAAAAA
AAAAAAAAAAAAAAAAAAAAIIIIIIIIIIIIIIIIIIIIIIIIIIAAAAIIIIIIAAAAAAAA
AAAAAAAAAAAAAAAAAAAAIIIIIIIIIIIIIIIIIIIIIIIIIIAAAAIIIIIIIAAAAAAA
AAAAAAAAAAAAAAAAAAAAIIIIIIIIIIIIIIIIIIIIIIIIIIAAAAIIIIIIIIAAAAAA
AAAAAAAAAAAAAAAAAAAAIIIIIIIIIIIIIIIIIIIIIIIIIIAAAAIIIIIIIIIAAAAA
AAAAAAAAAAAAAAAAAAAAIIIIIIIIIIIIIIIIIIIIIIIIIIAAAAIIIIIIIIIIAAAA
AAAAAAAAAAAAAAAAAAAAIIIIIIIIIIIIIIIIIIIIIIIIIIAAAAIIIIIIIIIIIAAA
AAAAAAAAAAAAAAAAAAAAIIIIIIIIIIIIIIIIIIIIIIIIIIAAAAIIIIIIIIIIIIAA
AAAAAAAAAAAAAAAAAAAAIIIIIIIIIIIIIIIIIIIIIIIIIIAAAAIIIIIIIIIIIIAI
AAAAAAIAAAAAAAAAAAAAIIIIIIIIIIIIIIIIIIIIIIIIIIAAAAIIIIIIIIIIIIAI
AAAAAAIAAIAAAAAAAAAAIIIIIIIIIIIIIIIIIIIIIIIIIIAAAAIIIIIIIIIIIIAI
AAAAAAIAAIIAAAAAAAAAIIIIIIIIIIIIIIIIIIIIIIIIIIAAAAIIIIIIIIIIIIAI
AAAAAAIAAIIIAAAAAAAAIIIIIIIIIIIIIIIIIIIIIIIIIIAAAAIIIIIIIIIIIIAI
AAAAAAIAAIIIIAAAAAAAIIIIIIIIIIIIIIIIIIIIIIIIIIAAAAIIIIIIIIIIIIAI
AAAAAAIAAIIIIIAAAAAAIIIIIIIIIIIIIIIIIIIIIIIIIIAAAAIIIIIIIIIIIIAI
AAAAAAIAIIIIIIAAAAAAIIIIIIIIIIIIIIIIIIIIIIIIIIAAAAIIIIIIIIIIIIAI
AAAAAAIAIIIIIIIAAAAAIIIIIIIIIIIIIIIIIIIIIIIIIIAAAAIIIIIIIIIIIIAI
AAAAAAIIIIIIIIIAAAAAIIIIIIIIIIIIIIIIIIIIIIIIIIAAAAIIIIIIIIIIIIAI
AAAAAAIIIIIIIIIAIAAAIIIIIIIIIIIIIIIIIIIIIIIIIIAAAAIIIIIIIIIIIIAI
AAAAAAIIIIIIIIIAIIAAIIIIIIIIIIIIIIIIIIIIIIIIIIAAAAIIIIIIIIIIIIAI
AAAAAAIIIIIIIIIIIIAAIIIIIIIIIIIIIIIIIIIIIIIIIIAAAAIIIIIIIIIIIIAI
AAAAAAIIIIIIIIIIIIIAIIIIIIIIIIIIIIIIIIIIIIIIIIAAAAIIIIIIIIIIIIAI
AAAAAAIIIIIIIIIIIIIIIIIIIIIIIIIIIIIIIIIIIIIIIIAAAAIIIIIIIIIIIIAI
AAAAAA2IIIII2IIIII4IIIII4IIIIIIIIIIIIIIIIIIIIIAAAAIIIIIIIIIIIIAI
AAAAAA22IIII22IIII44IIII44IIIIIIIIIIIIIIIIIIIIAAAAIIIIIIIIIIIIAI
AAAAAA222III222III444III444IIIIIIIIIIIIIIIIIIIAAAAIIIIIIIIIIIIAI
AAAAAA2222II2222II4444II4444IIIIIIIIIIIIIIIIIIAAAAIIIIIIIIIIIIAI
AAAAAA22222I22222I44444I44444IIIIIIIIIIIIIIIIIAAAAIIIIIIIIIIIIAI
AAAAAA222222222222444444444444IIIIIIIIIIIIIIIIAAAAIIIIIIIIIIIIAI
AAAAAAA222222222222444444444444IIIIIIIIIIIIIIIAAAAIIIIIIIIIIIIAI
AAAAAAAA222222222222444444444444IIIIIIIIIIIIIIAAAAIIIIIIIIIIIIAI
AAAAAAAAA222222222222444444444444IIIIIIIIIIIIIAAAAIIIIIIIIIIIIAI
AAAAAAAAAA222222222222444444444444IIIIIIIIIIIIAAAAIIIIIIIIIIIIAI
AAAAAAAAAAA222222222222444444444444IIIIIIIIIIIAAAAIIIIIIIIIIIIAI
AAAAAAAAAAAA222222222222444444444444IIIIIIIIIIAAAAIIIIIIIIIIIIAI
AAAAAAAAAAAAA222222222222444444444444IIIIIIIIIAAAAIIIIIIIIIIIIAI
AAAAAAAAAAAAAA222222222222444444444444IIIIIIIIAAAAIIIIIIIIIIIIAI
AAAAAAAAAAAAAAA222222222222444444444444IIIIIIIAAAAIIIIIIIIIIIIAI
AAAAAAAAAAAAAAAA222222222222444444444444IIIIIIAAAAIIIIIIIIIIIIAI
AAAAAAAAAAAAAAAAA222222222222444444444444IIIIIAAAAIIIIIIIIIIIIAI
AAAAAAAAAAAAAAAAAA222222222222444444444444IIIIAAAAIIIIIIIIIIIIAI
AAAAAAAAAAAAAAAAAAA222222222222444444444444IIIAAAAIIIIIIIIIIIIAI
AAAAAAAAAAAAAAAAAAAA222222222222444444444444IIAAAAIIIIIIIIIIIIAI
AAAAAAAAAAAAAAAAAAAAA222222222222444444444444IAAAAIIIIIIIIIIIIAI
AAAAAAAAAAAAAAAAAAAAAA222222222222444444444444AAAAIIIIIIIIIIIIAI
AAAAAAAAAAAAAAAAAAAAAAA22222222222244444444444AAAAIIIIIIIIIIIIAI
AAAAAAAAAAAAAAAAAAAAAAAA2222222222224444444444AAAAIIIIIIIIIIIIAI
AAAAAAAAAAAAAAAAAAAAAAAAA222222222222444444444AAAAIIIIIIIIIIIIAI
AAAAAAAAAAAAAAAAAAAAAAAAAA22222222222244444444AAAAIIIIIIIIIIIIAI
AAAAAAAAAAAAAAAAAAAAAAAAAAA2222222222224444444AAAA4IIIIIIIIIIIAI
AAAAAAAAAAAAAAAAAAAAAAAAAAAA222222222222444444AAAA44IIIIIIIIIIAI
AAAAAAAAAAAAAAAAAAAAAAAAAAAAA22222222222244444AAAA444IIIIIIIIIAI
AAAAAAAAAAAAAAAAAAAAAAAAAAAAAA2222222222224444AAAA4444IIIIIIIIAI
AAAAAAAAAAAAAAAAAAAAAAAAAAAAAAA222222222222444AAAA44444IIIIIIIAI
AAAAAAAAAAAAAAAAAAAAAAAAAAAAAAAA22222222222244AAAA444444IIIIIIAI
AAAAAAAAAAAAAAAAAAAAAAAAAAAAAAAAA2222222222224AAAA4444444IIIIIAI
AAAAAAAAAAAAAAAAAAAAAAAAAAAAAAAAAA222222222222AAAA44444444IIIIAI
AAAAAAAAAAAAAAAAAAAAAAAAAAAAAAAAAAA22222222222AAAA444444444IIIAI
AAAAAAAAAAAAAAAAAAAAAAAAAAAAAAAAAAAA2222222222AAAA4444444444IIAI
AAAAAAAAAAAAAAAAAAAAAAAAAAAAAAAAAAAAA222222222AAAA44444444444IAI
AAAAAAAAAAAAAAAAAAAAAAAAAAAAAAAAAAAAAA22222222AAAA444444444444AI
AAAAAAAAAAAAAAAAAAAAAAAAAAAAAAAAAAAAAAA2222222AAAA244444444444AI
AAAAAAAAAAAAAAAAAAAAAAAAAAAAAAAAAAAAAAAA222222AAAA224444444444A4
AAAAAAAAAAAAAAAAAAAAAAAAAAAAAAAAAAAAAAAAA22222AAAA222444444444A4
AAAAAAAAAAAAAAAAAAAAAAAAAAAAAAAAAAAAAAAAAA2222AAAA222244444444A4
AAAAAAAAAAAAAAAAAAAAAAAAAAAAAAAAAAAAAAAAAAA222AAAA222224444444A4
AAAAAAAAAAAAAAAAAAAAAAAAAAAAAAAAAAAAAAAAAAAA22AAAA222222444444A4
AAAAAAAAAAAAAAAAAAAAAAAAAAAAAAAAAAAAAAAAAAAAA2AAAA222222244444A4
AAAAAAAAAAAAAAAAAAAAAAAAAAAAAAAAAAAAAAAAAAAAAAAAAA222222224444A4
AAAAAAAAAAAAAAAAAAAAAAAAAAAAAAAAAAAAAAAAAAAAAAAAAA222222222444A4
AAAAAAAAAAAAAAAAAAAAAAAAAAAAAAAAAAAAAAAAAAAAAAAAAA222222222244A4
AAAAAAAAAAAAAAAAAAAAAAAAAAAAAAAAAAAAAAAAAAAAAAAAAA222222222224A4
AAAAAAAAAAAAAAAAAAAAAAAAAAAAAAAAAAAAAAAAAAAAAAAAAA222222222222A4
AAAAAAAAAAAAAAAAAAAAAAAAAAAAAAAAAAAAAAAAAAAAAAAAAAA22222222222A4
AAAAAAAAAAAAAAAAAAAAAAAAAAAAAAAAAAAAAAAAAAAAAAAAAAAA2222222222A2
AAAAAAAAAAAAAAAAAAAAAAAAAAAAAAAAAAAAAAAAAAAAAAAAAAAAA222222222A2
AAAAAAAAAAAAAAAAAAAAAAAAAAAAAAAAAAAAAAAAAAAAAAAAAAAAAA22222222A2
AAAAAAAAAAAAAAAAAAAAAAAAAAAAAAAAAAAAAAAAAAAAAAAAAAAAAAA2222222A2
AAAAAAAAAAAAAAAAAAAAAAAAAAAAAAAAAAAAAAAAAAAAAAAAAAAAAAAA222222A2
AAAAAAAAAAAAAAAAAAAAAAAAAAAAAAAAAAAAAAAAAAAAAAAAAAAAAAAAA22222A2
AAAAAAAAAAAAAAAAAAAAAAAAAAAAAAAAAAAAAAAAAAAAAAAAAAAAAAAAAA2222A2
AAAAAAAAAAAAAAAAAAAAAAAAAAAAAAAAAAAAAAAAAAAAAAAAAAAAAAAAAAA222A2
AAAAAAAAAAAAAAAAAAAAAAAAAAAAAAAAAAAAAAAAAAAAAAAAAAAAAAAAAAAA22A2
AAAAAAAAAAAAAAAAAAAAAAAAAAAAAAAAAAAAAAAAAAAAAAAAAAAAAAAAAAAAA2A2
AAAAAAAAAAAAAAAAAAAAAAAAAAAAAAAAAAAAAAAAAAAAAAAAAAAAAAAAAAAAAAA2
AAAAAAAAAAAAAAAAAAAAAAAAAAAAAAAAAAAAAAAAAAAAAAAAAAAAAAAAAAAAAAAA
AAAAAAAAAAAAAAAAAAAAAIAAAAAAAAAAAAAAAAAAAAAAAAAAAAAAAAAAAAAAAAAA
AAAAAAAAAAAAAAAAAAAAAIIAAAAAAAAAAAAAAAAAAAAAAAAAAAAAAAAAAAAAAAAA
AAAAAAAAAAAAAAAAAAAAAIIIAAAAAAAAAAAAAAAAAAAAAAAAAAAAAAAAAAAAAAAA
AAAAAAAAAAAAAAAAAAAAAIIIIAAAAAAAAAAAAAAAAAAAAAAAAAAAAAAAAAAAAAAA
AAAAAAAAAAAAAAAAAAAAIIIIIAAAAAAAAAAAAAAAAAAAAAAAAAAAAAAAAAAAAAAA
AAAAAAAAAAAAAAAAAAAAIIIIIIAAAAAAAAAAAAAAAAAAAAAAAAAAAAAAAAAAAAAA
AAAAAAAAAAAAAAAAAAAAIIIIIIIAAAAAAAAAAAAAAAAAAAAAAAAAAAAAAAAAAAAA
AAAAAAAAAAAAAAAAAAAAIIIIIIIIAAAAAAAAAAAAAAAAAAAAAAAAAAAAAAAAAAAA
AAAAAAAAAAAAAAAAAAAAIIIIIIIIIAAAAAAAAAAAAAAAAAAAAAAAAAAAAAAAAAAA
AAAAAAAAAAAAAAAAAAAAIIIIIIIIIIAAAAAAAAAAAAAAAAAAAAAAAAAAAAAAAAAA
AAAAAAAAAAAAAAAAAAAAIIIIIIIIIIIAAAAAAAAAAAAAAAAAAAAAAAAAAAAAAAAA
AAAAAAAAAAAAAAAAAAAAIIIIIIIIIIIIAAAAAAAAAAAAAAAAAAAAAAAAAAAAAAAA
AAAAAAAAAAAAAAAAAAAAIIIIIIIIIIIIIAAAAAAAAAAAAAAAAAAAAAAAAAAAAAAA
AAAAAAAAAAAAAAAAAAAAIIIIIIIIIIIIIIAAAAAAAAAAAAAAAAAAAAAAAAAAAAAA
AAAAAAAAAAAAAAAAAAAAIIIIIIIIIIIIIIIAAAAAAAAAAAAAAAAAAAAAAAAAAAAA
AAAAAAAAAAAAAAAAAAAAIIIIIIIIIIIIIIIIAAAAAAAAAAAAAAAAAAAAAAAAAAAA
AAAAAAAAAAAAAAAAAAAAIIIIIIIIIIIIIIIIIAAAAAAAAAAAAAAAAAAAAAAAAAAA
AAAAAAAAAAAAAAAAAAAAIIIIIIIIIIIIIIIIIIAAAAAAAAAAAAAAAAAAAAAAAAAA
AAAAAAAAAAAAAAAAAAAAIIIIIIIIIIIIIIIIIIIAAAAAAAAAAAAAAAAAAAAAAAAA
AAAAAAAAAAAAAAAAAAAAIIIIIIIIIIIIIIIIIIIIAAAAAAAAAAAAAAAAAAAAAAAA
AAAAAAAAAAAAAAAAAAAAIIIIIIIIIIIIIIIIIIIIIAAAAAAAAAAAAAAAAAAAAAAA
AAAAAAAAAAAAAAAAAAAAIIIIIIIIIIIIIIIIIIIIIIAAAAAAAAAAAAAAAAAAAAAA
AAAAAAAAAAAAAAAAAAAAIIIIIIIIIIIIIIIIIIIIIIIAAAAAAAAAAAAAAAAAAAAA
AAAAAAAAAAAAAAAAAAAAIIIIIIIIIIIIIIIIIIIIIIIIAAAAAAAAAAAAAAAAAAAA
AAAAAAAAAAAAAAAAAAAAIIIIIIIIIIIIIIIIIIIIIIIIAAIAAAAAAAAAAAAAAAAA
AAAAAAAAAAAAAAAAAAAAIIIIIIIIIIIIIIIIIIIIIIIIAAIAAIAAAAAAAAAAAAAA
AAAAAAAAAAAAAAAAAAAAIIIIIIIIIIIIIIIIIIIIIIIIAAIAAIIAAAAAAAAAAAAA
AAAAAAAAAAAAAAAAAAAAIIIIIIIIIIIIIIIIIIIIIIIIAAIAAIIIAAAAAAAAAAAA
AAAAAAAAAAAAAAAAAAAAIIIIIIIIIIIIIIIIIIIIIIIIAAIAAIIIIAAAAAAAAAAA
AAAAAAAAAAAAAAAAAAAAIIIIIIIIIIIIIIIIIIIIIIIIAAIAAIIIIAIAAAAAAAAA
AAAAAAAAAAAAAAAAAAAAIIIIIIIIIIIIIIIIIIIIIIIIAAIAAIIIIAIIAAAAAAAA
AAAAAAAAAAAAAAAAAAAAIIIIIIIIIIIIIIIIIIIIIIIIAAIAAIIIIIIIAAAAAAAA
AAAAAAAAAAAAAAAAAAAAIIIIIIIIIIIIIIIIIIIIIIIIAAIAAIIIIIIIIAAAAAAA
AAAAAAAAAAAAAAAAAAAAIIIIIIIIIIIIIIIIIIIIIIIIAAIAAIIIIIIIIIAAAAAA
AAAAAAAAAAAAAAAAAAAAIIIIIIIIIIIIIIIIIIIIIIIIAAIAAIIIIIIIIIIAAAAA
AAAAAAAAAAAAAAAAAAAAIIIIIIIIIIIIIIIIIIIIIIIIAAIAAIIIIIIIIIIIAAAA
AAAAAAAAAAAAAAAAAAAAIIIIIIIIIIIIIIIIIIIIIIIIAAIAAIIIIIIIIIIIIAAA
AAAAAAAAAAAAAAAAAAAAIIIIIIIIIIIIIIIIIIIIIIIIAAIAAIIIIIIIIIIIIIAA
AAAAAAAAAAAAAAAAAAAAIIIIIIIIIIIIIIIIIIIIIIIIAAIAAIIIIIIIIIIIIIIA
AAAAAAAAAAAAAAAAAAAAIIIIIIIIIIIIIIIIIIIIIIIIAAIAAIIIIIIIIIIIIIII
AAAAAAIAAAAAAAAAAAAAIIIIIIIIIIIIIIIIIIIIIIIIAAIAAIIIIIIIIIIIIIII
AAAAAAIAIAAAAAAAAAAAIIIIIIIIIIIIIIIIIIIIIIIIAAIAAIIIIIIIIIIIIIII
AAAAAAIAIIAAAAAAAAAAIIIIIIIIIIIIIIIIIIIIIIIIAAIAAIIIIIIIIIIIIIII
AAAAAAIAIIIAAAAAAAAAIIIIIIIIIIIIIIIIIIIIIIIIAAIAAIIIIIIIIIIIIIII
AAAAAAIAIIIIAAAAAAAAIIIIIIIIIIIIIIIIIIIIIIIIAAIAAIIIIIIIIIIIIIII
AAAAAAIAIIIIIAAAAAAAIIIIIIIIIIIIIIIIIIIIIIIIAAIAAIIIIIIIIIIIIIII
AAAAAAIAIIIIIIAAAAAAIIIIIIIIIIIIIIIIIIIIIIIIAAIAAIIIIIIIIIIIIIII
[...]
AAAAAAAAAAAAAAAAAAAAAAAAAAAAAAAAAAAAAAAAAAAAAAAAAAAAAA2222222222
AAAAAAAAAAAAAAAAAAAAAAAAAAAAAAAAAAAAAAAAAAAAAAAAAAAAAAA222222222
AAAAAAAAAAAAAAAAAAAAAAAAAAAAAAAAAAAAAAAAAAAAAAAAAAAAAAAA22222222
AAAAAAAAAAAAAAAAAAAAAAAAAAAAAAAAAAAAAAAAAAAAAAAAAAAAAAAAA2222222
AAAAAAAAAAAAAAAAAAAAAAAAAAAAAAAAAAAAAAAAAAAAAAAAAAAAAAAAAA222222
AAAAAAAAAAAAAAAAAAAAAAAAAAAAAAAAAAAAAAAAAAAAAAAAAAAAAAAAAAA22222
AAAAAAAAAAAAAAAAAAAAAAAAAAAAAAAAAAAAAAAAAAAAAAAAAAAAAAAAAAAA2222
AAAAAAAAAAAAAAAAAAAAAAAAAAAAAAAAAAAAAAAAAAAAAAAAAAAAAAAAAAAAA222
AAAAAAAAAAAAAAAAAAAAAAAAAAAAAAAAAAAAAAAAAAAAAAAAAAAAAAAAAAAAAA22
AAAAAAAAAAAAAAAAAAAAAAAAAAAAAAAAAAAAAAAAAAAAAAAAAAAAAAAAAAAAAAA2
AAAAAAAAAAAAAAAAAAAAAAAAAAAAAAAAAAAAAAAAAAAAAAAAAAAAAAAAAAAAAAAA
AAAAAAAAAAAAAAAAAAAAIAAAAAAAAAAAAAAAAAAAAAAAAAAAAAAAAAAAAAAAAAAA
AAAAAAAAAAAAAAAAAAAAIIAAAAAAAAAAAAAAAAAAAAAAAAAAAAAAAAAAAAAAAAAA
AAAAAAAAAAAAAAAAAAAAIIIAAAAAAAAAAAAAAAAAAAAAAAAAAAAAAAAAAAAAAAAA
AAAAAAAAAAAAAAAAAAAAIIIIAAAAAAAAAAAAAAAAAAAAAAAAAAAAAAAAAAAAAAAA
AAAAAAAAAAAAAAAAAAAAIIIIIAAAAAAAAAAAAAAAAAAAAAAAAAAAAAAAAAAAAAAA
AAAAAAAAAAAAAAAAAAAAIIIIIIAAAAAAAAAAAAAAAAAAAAAAAAAAAAAAAAAAAAAA
AAAAAAAAAAAAAAAAAAAAIIIIIIIAAAAAAAAAAAAAAAAAAAAAAAAAAAAAAAAAAAAA
AAAAAAAAAAAAAAAAAAAAIIIIIIIIAAAAAAAAAAAAAAAAAAAAAAAAAAAAAAAAAAAA
AAAAAAAAAAAAAAAAAAAAIIIIIIIIIAAAAAAAAAAAAAAAAAAAAAAAAAAAAAAAAAAA
AAAAAAAAAAAAAAAAAAAAIIIIIIIIIIAAAAAAAAAAAAAAAAAAAAAAAAAAAAAAAAAA
AAAAAAAAAAAAAAAAAAAAIIIIIIIIIIIAAAAAAAAAAAAAAAAAAAAAAAAAAAAAAAAA
AAAAAAAAAAAAAAAAAAAAIIIIIIIIIIIIAAAAAAAAAAAAAAAAAAAAAAAAAAAAAAAA
AAAAAAAAAAAAAAAAAAAAIIIIIIIIIIIIIAAAAAAAAAAAAAAAAAAAAAAAAAAAAAAA
AAAAAAAAAAAAAAAAAAAAIIIIIIIIIIIIIIAAAAAAAAAAAAAAAAAAAAAAAAAAAAAA
AAAAAAAAAAAAAAAAAAAAIIIIIIIIIIIIIIIAAAAAAAAAAAAAAAAAAAAAAAAAAAAA
AAAAAAAAAAAAAAAAAAAAIIIIIIIIIIIIIIIIAAAAAAAAAAAAAAAAAAAAAAAAAAAA
AAAAAAAAAAAAAAAAAAAAIIIIIIIIIIIIIIIIIAAAAAAAAAAAAAAAAAAAAAAAAAAA
AAAAAAAAAAAAAAAAAAAAIIIIIIIIIIIIIIIIIIAAAAAAAAAAAAAAAAAAAAAAAAAA
AAAAAAAAAAAAAAAAAAAAIIIIIIIIIIIIIIIIIIIAAAAAAAAAAAAAAAAAAAAAAAAA
AAAAAAAAAAAAAAAAAAAAIIIIIIIIIIIIIIIIIIIIAAAAAAAAAAAAAAAAAAAAAAAA
AAAAAAAAAAAAAAAAAAAAIIIIIIIIIIIIIIIIIIIIIAAAAAAAAAAAAAAAAAAAAAAA
AAAAAAAAAAAAAAAAAAAAIIIIIIIIIIIIIIIIIIIIIIAAAAAAAAAAAAAAAAAAAAAA
AAAAAAAAAAAAAAAAAAAAIIIIIIIIIIIIIIIIIIIIIIIAAAAAAAAAAAAAAAAAAAAA
AAAAAAAAAAAAAAAAAAAAIIIIIIIIIIIIIIIIIIIIIIIIAAAAAAAAAAAAAAAAAAAA
AAAAAAAAAAAAAAAAAAAAIIIIIIIIIIIIIIIIIIIIIIIIIAAAAAAAAAAAAAAAAAAA
AAAAAAAAAAAAAAAAAAAAIIIIIIIIIIIIIIIIIIIIIIIIIAIAAAAAAAAAAAAAAAAA
AAAAAAAAAAAAAAAAAAAAIIIIIIIIIIIIIIIIIIIIIIIIIAIIAAAAAAAAAAAAAAAA
AAAAAAAAAAAAAAAAAAAAIIIIIIIIIIIIIIIIIIIIIIIIIAIIIAAAAAAAAAAAAAAA
AAAAAAAAAAAAAAAAAAAAIIIIIIIIIIIIIIIIIIIIIIIIIAIIIIAAAAAAAAAAAAAA
AAAAAAAAAAAAAAAAAAAAIIIIIIIIIIIIIIIIIIIIIIIIIIIIIIAAAAAAAAAAAAAA
AAAAAAAAAAAAAAAAAAAAIIIIIIIIIIIIIIIIIIIIIIIIIIIIIIIAAAAAAAAAAAAA
AAAAAAAAAAAAAAAAAAAAIIIIIIIIIIIIIIIIIIIIIIIIIIIIIIIIAAAAAAAAAAAA
AAAAAAAAAAAAAAAAAAAAIIIIIIIIIIIIIIIIIIIIIIIIIIIIIIIIIAAAAAAAAAAA
AAAAAAAAAAAAAAAAAAAAIIIIIIIIIIIIIIIIIIIIIIIIIIIIIIIIIIAAAAAAAAAA
AAAAAAAAAAAAAAAAAAAAIIIIIIIIIIIIIIIIIIIIIIIIIIIIIIIIIIIAAAAAAAAA
AAAAAAAAAAAAAAAAAAAAIIIIIIIIIIIIIIIIIIIIIIIIIIIIIIIIIIIIAAAAAAAA
AAAAAAAAAAAAAAAAAAAAIIIIIIIIIIIIIIIIIIIIIIIIIIIIIIIIIIIIIAAAAAAA
AAAAAAAAAAAAAAAAAAAAIIIIIIIIIIIIIIIIIIIIIIIIIIIIIIIIIIIIIIAAAAAA
AAAAAAAAAAAAAAAAAAAAIIIIIIIIIIIIIIIIIIIIIIIIIIIIIIIIIIIIIIIAAAAA
AAAAAAAAAAAAAAAAAAAAIIIIIIIIIIIIIIIIIIIIIIIIIIIIIIIIIIIIIIIIAAAA
AAAAAAAAAAAAAAAAAAAAIIIIIIIIIIIIIIIIIIIIIIIIIIIIIIIIIIIIIIIIIAAA
AAAAAAAAAAAAAAAAAAAAIIIIIIIIIIIIIIIIIIIIIIIIIIIIIIIIIIIIIIIIIIAA
AAAAAAAAAAAAAAAAAAAAIIIIIIIIIIIIIIIIIIIIIIIIIIIIIIIIIIIIIIIIIIIA
AAAAAAAAAAAAAAAAAAAAIIIIIIIIIIIIIIIIIIIIIIIIIIIIIIIIIIIIIIIIIIII
AAAAAAIAAAAAAAAAAAAAIIIIIIIIIIIIIIIIIIIIIIIIIIIIIIIIIIIIIIIIIIII
AAAAAAIAIAAAAAAAAAAAIIIIIIIIIIIIIIIIIIIIIIIIIIIIIIIIIIIIIIIIIIII
AAAAAAIAIIAAAAAAAAAAIIIIIIIIIIIIIIIIIIIIIIIIIIIIIIIIIIIIIIIIIIII
AAAAAAIAIIIAAAAAAAAAIIIIIIIIIIIIIIIIIIIIIIIIIIIIIIIIIIIIIIIIIIII
AAAAAAIAIIIIAAAAAAAAIIIIIIIIIIIIIIIIIIIIIIIIIIIIIIIIIIIIIIIIIIII
AAAAAAIAIIIIIAAAAAAAIIIIIIIIIIIIIIIIIIIIIIIIIIIIIIIIIIIIIIIIIIII
AAAAAAIAIIIIIIAAAAAAIIIIIIIIIIIIIIIIIIIIIIIIIIIIIIIIIIIIIIIIIIII
AAAAAAIAIIIIIIIAAAAAIIIIIIIIIIIIIIIIIIIIIIIIIIIIIIIIIIIIIIIIIIII
AAAAAAIAIIIIIIIAIAAAIIIIIIIIIIIIIIIIIIIIIIIIIIIIIIIIIIIIIIIIIIII
AAAAAAIAIIIIIIIAIIAAIIIIIIIIIIIIIIIIIIIIIIIIIIIIIIIIIIIIIIIIIIII
AAAAAAIIIIIIIIIAIIAAIIIIIIIIIIIIIIIIIIIIIIIIIIIIIIIIIIIIIIIIIIII
AAAAAAIIIIIIIIIIIIAAIIIIIIIIIIIIIIIIIIIIIIIIIIIIIIIIIIIIIIIIIIII
AAAAAAIIIIIIIIIIIIIAIIIIIIIIIIIIIIIIIIIIIIIIIIIIIIIIIIIIIIIIIIII
AAAAAAIIIIIIIIIIIIIIIIIIIIIIIIIIIIIIIIIIIIIIIIIIIIIIIIIIIIIIIIII
AAAAAA2IIIII2IIIII2IIIII4IIIIIIIIIIIIIIIIIIIIIIIIIIIIIIIIIIIIIII
AAAAAA22IIII22IIII22IIII44IIIIIIIIIIIIIIIIIIIIIIIIIIIIIIIIIIIIII
AAAAAA222III222III222III444IIIIIIIIIIIIIIIIIIIIIIIIIIIIIIIIIIIII
AAAAAA2222II2222II2222II4444IIIIIIIIIIIIIIIIIIIIIIIIIIIIIIIIIIII
AAAAAA22222I22222I22222I44444IIIIIIIIIIIIIIIIIIIIIIIIIIIIIIIIIII
AAAAAA222222222222222222444444IIIIIIIIIIIIIIIIIIIIIIIIIIIIIIIIII
AAAAAAA222222222222222222444444IIIIIIIIIIIIIIIIIIIIIIIIIIIIIIIII
AAAAAAAA222222222222222222444444IIIIIIIIIIIIIIIIIIIIIIIIIIIIIIII
AAAAAAAAA222222222222222222444444IIIIIIIIIIIIIIIIIIIIIIIIIIIIIII
AAAAAAAAAA222222222222222222444444IIIIIIIIIIIIIIIIIIIIIIIIIIIIII
AAAAAAAAAAA222222222222222222444444IIIIIIIIIIIIIIIIIIIIIIIIIIIII
AAAAAAAAAAAA222222222222222222444444IIIIIIIIIIIIIIIIIIIIIIIIIIII
AAAAAAAAAAAAA222222222222222222444444IIIIIIIIIIIIIIIIIIIIIIIIIII
AAAAAAAAAAAAAA222222222222222222444444IIIIIIIIIIIIIIIIIIIIIIIIII
AAAAAAAAAAAAAAA222222222222222222444444IIIIIIIIIIIIIIIIIIIIIIIII
AAAAAAAAAAAAAAAA222222222222222222444444IIIIIIIIIIIIIIIIIIIIIIII
AAAAAAAAAAAAAAAAA222222222222222222444444IIIIIIIIIIIIIIIIIIIIIII
AAAAAAAAAAAAAAAAAA222222222222222222444444IIIIIIIIIIIIIIIIIIIIII
AAAAAAAAAAAAAAAAAAA222222222222222222444444IIIIIIIIIIIIIIIIIIIII
AAAAAAAAAAAAAAAAAAAA222222222222222222444444IIIIIIIIIIIIIIIIIIII
AAAAAAAAAAAAAAAAAAAAA222222222222222222444444IIIIIIIIIIIIIIIIIII
AAAAAAAAAAAAAAAAAAAAAA222222222222222222444444IIIIIIIIIIIIIIIIII
AAAAAAAAAAAAAAAAAAAAAAA222222222222222222444444IIIIIIIIIIIIIIIII
AAAAAAAAAAAAAAAAAAAAAAAA222222222222222222444444IIIIIIIIIIIIIIII
AAAAAAAAAAAAAAAAAAAAAAAAA222222222222222222444444IIIIIIIIIIIIIII
AAAAAAAAAAAAAAAAAAAAAAAAAA222222222222222222444444IIIIIIIIIIIIII
AAAAAAAAAAAAAAAAAAAAAAAAAAA222222222222222222444444IIIIIIIIIIIII
AAAAAAAAAAAAAAAAAAAAAAAAAAAA222222222222222222444444IIIIIIIIIIII
AAAAAAAAAAAAAAAAAAAAAAAAAAAAA222222222222222222444444IIIIIIIIIII
AAAAAAAAAAAAAAAAAAAAAAAAAAAAAA222222222222222222444444IIIIIIIIII
AAAAAAAAAAAAAAAAAAAAAAAAAAAAAAA222222222222222222444444IIIIIIIII
AAAAAAAAAAAAAAAAAAAAAAAAAAAAAAAA222222222222222222444444IIIIIIII
AAAAAAAAAAAAAAAAAAAAAAAAAAAAAAAAA222222222222222222444444IIIIIII
AAAAAAAAAAAAAAAAAAAAAAAAAAAAAAAAAA222222222222222222444444IIIIII
AAAAAAAAAAAAAAAAAAAAAAAAAAAAAAAAAAA222222222222222222444444IIIII
AAAAAAAAAAAAAAAAAAAAAAAAAAAAAAAAAAAA222222222222222222444444IIII
AAAAAAAAAAAAAAAAAAAAAAAAAAAAAAAAAAAAA222222222222222222444444III
AAAAAAAAAAAAAAAAAAAAAAAAAAAAAAAAAAAAAA222222222222222222444444II
AAAAAAAAAAAAAAAAAAAAAAAAAAAAAAAAAAAAAAA222222222222222222444444I
AAAAAAAAAAAAAAAAAAAAAAAAAAAAAAAAAAAAAAAA222222222222222222444444
AAAAAAAAAAAAAAAAAAAAAAAAAAAAAAAAAAAAAAAAA22222222222222222244444
AAAAAAAAAAAAAAAAAAAAAAAAAAAAAAAAAAAAAAAAAA2222222222222222224444
AAAAAAAAAAAAAAAAAAAAAAAAAAAAAAAAAAAAAAAAAAA222222222222222222444
AAAAAAAAAAAAAAAAAAAAAAAAAAAAAAAAAAAAAAAAAAAA22222222222222222244
AAAAAAAAAAAAAAAAAAAAAAAAAAAAAAAAAAAAAAAAAAAAA2222222222222222224
AAAAAAAAAAAAAAAAAAAAAAAAAAAAAAAAAAAAAAAAAAAAAA222222222222222222
AAAAAAAAAAAAAAAAAAAAAAAAAAAAAAAAAAAAAAAAAAAAAAA22222222222222222
AAAAAAAAAAAAAAAAAAAAAAAAAAAAAAAAAAAAAAAAAAAAAAAA2222222222222222
AAAAAAAAAAAAAAAAAAAAAAAAAAAAAAAAAAAAAAAAAAAAAAAAA222222222222222
AAAAAAAAAAAAAAAAAAAAAAAAAAAAAAAAAAAAAAAAAAAAAAAAAA22222222222222
AAAAAAAAAAAAAAAAAAAAAAAAAAAAAAAAAAAAAAAAAAAAAAAAAAA2222222222222
AAAAAAAAAAAAAAAAAAAAAAAAAAAAAAAAAAAAAAAAAAAAAAAAAAAA222222222222
AAAAAAAAAAAAAAAAAAAAAAAAAAAAAAAAAAAAAAAAAAAAAAAAAAAAA22222222222
AAAAAAAAAAAAAAAAAAAAAAAAAAAAAAAAAAAAAAAAAAAAAAAAAAAAAA2222222222
AAAAAAAAAAAAAAAAAAAAAAAAAAAAAAAAAAAAAAAAAAAAAAAAAAAAAAA222222222
AAAAAAAAAAAAAAAAAAAAAAAAAAAAAAAAAAAAAAAAAAAAAAAAAAAAAAAA22222222
AAAAAAAAAAAAAAAAAAAAAAAAAAAAAAAAAAAAAAAAAAAAAAAAAAAAAAAAA2222222
AAAAAAAAAAAAAAAAAAAAAAAAAAAAAAAAAAAAAAAAAAAAAAAAAAAAAAAAAA222222
AAAAAAAAAAAAAAAAAAAAAAAAAAAAAAAAAAAAAAAAAAAAAAAAAAAAAAAAAAA22222
AAAAAAAAAAAAAAAAAAAAAAAAAAAAAAAAAAAAAAAAAAAAAAAAAAAAAAAAAAAA2222
AAAAAAAAAAAAAAAAAAAAAAAAAAAAAAAAAAAAAAAAAAAAAAAAAAAAAAAAAAAAA222
AAAAAAAAAAAAAAAAAAAAAAAAAAAAAAAAAAAAAAAAAAAAAAAAAAAAAAAAAAAAAA22
AAAAAAAAAAAAAAAAAAAAAAAAAAAAAAAAAAAAAAAAAAAAAAAAAAAAAAAAAAAAAAA2
AAAAAAAAAAAAAAAAAAAAAAAAAAAAAAAAAAAAAAAAAAAAAAAAAAAAAAAAAAAAAAAA
AAAAAAAAAAAAAAAAAAAAIAAAAAAAAAAAAAAAAAAAAAAAAAAAAAAAAAAAAAAAAAAA
AAAAAAAAAAAAAAAAAAAAIIAAAAAAAAAAAAAAAAAAAAAAAAAAAAAAAAAAAAAAAAAA
AAAAAAAAAAAAAAAAAAAAIIIAAAAAAAAAAAAAAAAAAAAAAAAAAAAAAAAAAAAAAAAA
AAAAAAAAAAAAAAAAAAAAIIIIAAAAAAAAAAAAAAAAAAAAAAAAAAAAAAAAAAAAAAAA
AAAAAAAAAAAAAAAAAAAAIIIIIAAAAAAAAAAAAAAAAAAAAAAAAAAAAAAAAAAAAAAA
AAAAAAAAAAAAAAAAAAAAIIIIIIAAAAAAAAAAAAAAAAAAAAAAAAAAAAAAAAAAAAAA
AAAAAAAAAAAAAAAAAAAAIIIIIIIAAAAAAAAAAAAAAAAAAAAAAAAAAAAAAAAAAAAA
AAAAAAAAAAAAAAAAAAAAIIIIIIIIAAAAAAAAAAAAAAAAAAAAAAAAAAAAAAAAAAAA
AAAAAAAAAAAAAAAAAAAAIIIIIIIIIAAAAAAAAAAAAAAAAAAAAAAAAAAAAAAAAAAA
AAAAAAAAAAAAAAAAAAAAIIIIIIIIIIAAAAAAAAAAAAAAAAAAAAAAAAAAAAAAAAAA
AAAAAAAAAAAAAAAAAAAAIIIIIIIIIIAAIAAAAAAAAAAAAAAAAAAAAAAAAAAAAAAA
AAAAAAAAAAAAAAAAAAAAIIIIIIIIIIAAIIAAAAAAAAAAAAAAAAAAAAAAAAAAAAAA
AAAAAAAAAAAAAAAAAAAAIIIIIIIIIIAAIIIAAAAAAAAAAAAAAAAAAAAAAAAAAAAA
AAAAAAAAAAAAAAAAAAAAIIIIIIIIIIAAIIIIAAAAAAAAAAAAAAAAAAAAAAAAAAAA
AAAAAAAAAAAAAAAAAAAAIIIIIIIIIIAAIIIIIAAAAAAAAAAAAAAAAAAAAAAAAAAA
AAAAAAAAAAAAAAAAAAAAIIIIIIIIIIAAIIIIIIAAAAAAAAAAAAAAAAAAAAAAAAAA
AAAAAAAAAAAAAAAAAAAAIIIIIIIIIIAAIIIIIIIAAAAAAAAAAAAAAAAAAAAAAAAA
AAAAAAAAAAAAAAAAAAAAIIIIIIIIIIAAIIIIIIIIAAAAAAAAAAAAAAAAAAAAAAAA
AAAAAAAAAAAAAAAAAAAAIIIIIIIIIIAAIIIIIIIIIAAAAAAAAAAAAAAAAAAAAAAA
AAAAAAAAAAAAAAAAAAAAIIIIIIIIIIAAIIIIIIIIIIAAAAAAAAAAAAAAAAAAAAAA
AAAAAAAAAAAAAAAAAAAAIIIIIIIIIIAAIIIIIIIIIIIAAAAAAAAAAAAAAAAAAAAA
AAAAAAAAAAAAAAAAAAAAIIIIIIIIIIAAIIIIIIIIIIIIAAAAAAAAAAAAAAAAAAAA
AAAAAAAAAAAAAAAAAAAAIIIIIIIIIIAAIIIIIIIIIIIIIAAAAAAAAAAAAAAAAAAA
AAAAAAAAAAAAAAAAAAAAIIIIIIIIIIAAIIIIIIIIIIIIIAIAAAAAAAAAAAAAAAAA
AAAAAAAAAAAAAAAAAAAAIIIIIIIIIIAAIIIIIIIIIIIIIIIAAAAAAAAAAAAAAAAA
AAAAAAAAAAAAAAAAAAAAIIIIIIIIIIAAIIIIIIIIIIIIIIIAAAAAIAAAAAAAAAAA
AAAAAAAAAAAAAAAAAAAAIIIIIIIIIIAAIIIIIIIIIIIIIIIAAAAAIIAAAAAAAAAA
AAAAAAAAAAAAAAAAAAAAIIIIIIIIIIAAIIIIIIIIIIIIIIIAAAAAIIIAAAAAAAAA
AAAAAAAAAAAAAAAAAAAAIIIIIIIIIIAAIIIIIIIIIIIIIIIAAAAAIIIIAAAAAAAA
AAAAAAAAAAAAAAAAAAAAIIIIIIIIIIAAIIIIIIIIIIIIIIIAAAAAIIIIIAAAAAAA
AAAAAAAAAAAAAAAAAAAAIIIIIIIIIIAAIIIIIIIIIIIIIIIAAAAAIIIIIIAAAAAA
AAAAAAAAAAAAAAAAAAAAIIIIIIIIIIAAIIIIIIIIIIIIIIIAAAAAIIIIIIIAAAAA
AAAAAAAAAAAAAAAAAAAAIIIIIIIIIIAAIIIIIIIIIIIIIIIAAAAAIIIIIIIIAAAA
AAAAAAAAAAAAAAAAAAAAIIIIIIIIIIAAIIIIIIIIIIIIIIIAAAAAIIIIIIIIIAAA
AAAAAAAAAAAAAAAAAAAAIIIIIIIIIIAAIIIIIIIIIIIIIIIAAAAAIIIIIIIIIIAA
AAAAAAAAAAAAAAAAAAAAIIIIIIIIIIAAIIIIIIIIIIIIIIIAAAAAIIIIIIIIIIIA
AAAAAAAAAAAAAAAAAAAAIIIIIIIIIIAAIIIIIIIIIIIIIIIAAAAAIIIIIIIIIIII
AAAAAAIAAAAAAAAAAAAAIIIIIIIIIIAAIIIIIIIIIIIIIIIAAAAAIIIIIIIIIIII
AAAAAAIAIAAAAAAAAAAAIIIIIIIIIIAAIIIIIIIIIIIIIIIAAAAAIIIIIIIIIIII
AAAAAAIAIIAAAAAAAAAAIIIIIIIIIIAAIIIIIIIIIIIIIIIAAAAAIIIIIIIIIIII
AAAAAAIAIIIAAAAAAAAAIIIIIIIIIIAAIIIIIIIIIIIIIIIAAAAAIIIIIIIIIIII
AAAAAAIAIIIIAAAAAAAAIIIIIIIIIIAAIIIIIIIIIIIIIIIAAAAAIIIIIIIIIIII
AAAAAAIAIIIIIAAAAAAAIIIIIIIIIIAAIIIIIIIIIIIIIIIAAAAAIIIIIIIIIIII
AAAAAAIAIIIIIIAAAAAAIIIIIIIIIIAAIIIIIIIIIIIIIIIAAAAAIIIIIIIIIIII
AAAAAAIAIIIIIIIAAAAAIIIIIIIIIIAAIIIIIIIIIIIIIIIAAAAAIIIIIIIIIIII
AAAAAAIAIIIIIIIAIAAAIIIIIIIIIIAAIIIIIIIIIIIIIIIAAAAAIIIIIIIIIIII
AAAAAAIIIIIIIIIAIAAAIIIIIIIIIIAAIIIIIIIIIIIIIIIAAAAAIIIIIIIIIIII
AAAAAAIIIIIIIIIAIIAAIIIIIIIIIIAAIIIIIIIIIIIIIIIAAAAAIIIIIIIIIIII
AAAAAAIIIIIIIIIIIIAAIIIIIIIIIIAAIIIIIIIIIIIIIIIAAAAAIIIIIIIIIIII
AAAAAAIIIIIIIIIIIIIAIIIIIIIIIIAAIIIIIIIIIIIIIIIAAAAAIIIIIIIIIIII
AAAAAAIIIIIIIIIIIIIIIIIIIIIIIIAAIIIIIIIIIIIIIIIAAAAAIIIIIIIIIIII
AAAAAA2IIIII2IIIII4IIIII4IIIIIAAIIIIIIIIIIIIIIIAAAAAIIIIIIIIIIII
AAAAAA22IIII22IIII44IIII44IIIIAAIIIIIIIIIIIIIIIAAAAAIIIIIIIIIIII
AAAAAA222III222III444III444IIIAAIIIIIIIIIIIIIIIAAAAAIIIIIIIIIIII
AAAAAA2222II2222II4444II4444IIAAIIIIIIIIIIIIIIIAAAAAIIIIIIIIIIII
AAAAAA22222I22222I44444I44444IAAIIIIIIIIIIIIIIIAAAAAIIIIIIIIIIII
AAAAAA222222222222444444444444AAIIIIIIIIIIIIIIIAAAAAIIIIIIIIIIII
AAAAAAA22222222222244444444444AAIIIIIIIIIIIIIIIAAAAAIIIIIIIIIIII
AAAAAAAA2222222222224444444444AAIIIIIIIIIIIIIIIAAAAAIIIIIIIIIIII
AAAAAAAAA222222222222444444444AA4IIIIIIIIIIIIIIAAAAAIIIIIIIIIIII
AAAAAAAAAA22222222222244444444AA44IIIIIIIIIIIIIAAAAAIIIIIIIIIIII
AAAAAAAAAAA2222222222224444444AA444IIIIIIIIIIIIAAAAAIIIIIIIIIIII
AAAAAAAAAAAA222222222222444444AA4444IIIIIIIIIIIAAAAAIIIIIIIIIIII
AAAAAAAAAAAAA22222222222244444AA44444IIIIIIIIIIAAAAAIIIIIIIIIIII
AAAAAAAAAAAAAA2222222222224444AA444444IIIIIIIIIAAAAAIIIIIIIIIIII
AAAAAAAAAAAAAAA222222222222444AA4444444IIIIIIIIAAAAAIIIIIIIIIIII
AAAAAAAAAAAAAAAA22222222222244AA44444444IIIIIIIAAAAAIIIIIIIIIIII
AAAAAAAAAAAAAAAAA2222222222224AA444444444IIIIIIAAAAAIIIIIIIIIIII
AAAAAAAAAAAAAAAAAA222222222222AA4444444444IIIIIAAAAAIIIIIIIIIIII
AAAAAAAAAAAAAAAAAAA22222222222AA44444444444IIIIAAAAAIIIIIIIIIIII
AAAAAAAAAAAAAAAAAAAA2222222222AA444444444444IIIAAAAAIIIIIIIIIIII
AAAAAAAAAAAAAAAAAAAAA222222222AA2444444444444IIAAAAAIIIIIIIIIIII
AAAAAAAAAAAAAAAAAAAAAA22222222AA22444444444444IAAAAAIIIIIIIIIIII
AAAAAAAAAAAAAAAAAAAAAAA2222222AA222444444444444AAAAAIIIIIIIIIIII
AAAAAAAAAAAAAAAAAAAAAAAA222222AA222244444444444AAAAAIIIIIIIIIIII
AAAAAAAAAAAAAAAAAAAAAAAAA22222AA222224444444444AAAAAIIIIIIIIIIII
AAAAAAAAAAAAAAAAAAAAAAAAAA2222AA222222444444444AAAAAIIIIIIIIIIII
AAAAAAAAAAAAAAAAAAAAAAAAAAA222AA222222244444444AAAAAIIIIIIIIIIII
AAAAAAAAAAAAAAAAAAAAAAAAAAAA22AA222222224444444AAAAAIIIIIIIIIIII
AAAAAAAAAAAAAAAAAAAAAAAAAAAAA2AA222222222444444AAAAA4IIIIIIIIIII
AAAAAAAAAAAAAAAAAAAAAAAAAAAAAAAA222222222244444AAAAA44IIIIIIIIII
AAAAAAAAAAAAAAAAAAAAAAAAAAAAAAAA222222222224444AAAAA444IIIIIIIII
AAAAAAAAAAAAAAAAAAAAAAAAAAAAAAAA222222222222444AAAAA4444IIIIIIII
AAAAAAAAAAAAAAAAAAAAAAAAAAAAAAAAA22222222222244AAAAA44444IIIIIII
AAAAAAAAAAAAAAAAAAAAAAAAAAAAAAAAAA2222222222224AAAAA444444IIIIII
AAAAAAAAAAAAAAAAAAAAAAAAAAAAAAAAAAA222222222222AAAAA4444444IIIII
AAAAAAAAAAAAAAAAAAAAAAAAAAAAAAAAAAAA22222222222AAAAA44444444IIII
AAAAAAAAAAAAAAAAAAAAAAAAAAAAAAAAAAAAA2222222222AAAAA444444444III
AAAAAAAAAAAAAAAAAAAAAAAAAAAAAAAAAAAAAA222222222AAAAA4444444444II
AAAAAAAAAAAAAAAAAAAAAAAAAAAAAAAAAAAAAAA22222222AAAAA44444444444I
AAAAAAAAAAAAAAAAAAAAAAAAAAAAAAAAAAAAAAAA2222222AAAAA444444444444
AAAAAAAAAAAAAAAAAAAAAAAAAAAAAAAAAAAAAAAAA222222AAAAA244444444444
AAAAAAAAAAAAAAAAAAAAAAAAAAAAAAAAAAAAAAAAAA22222AAAAA224444444444
AAAAAAAAAAAAAAAAAAAAAAAAAAAAAAAAAAAAAAAAAAA2222AAAAA222444444444
AAAAAAAAAAAAAAAAAAAAAAAAAAAAAAAAAAAAAAAAAAAA222AAAAA222244444444
AAAAAAAAAAAAAAAAAAAAAAAAAAAAAAAAAAAAAAAAAAAAA22AAAAA222224444444
AAAAAAAAAAAAAAAAAAAAAAAAAAAAAAAAAAAAAAAAAAAAAA2AAAAA222222444444
AAAAAAAAAAAAAAAAAAAAAAAAAAAAAAAAAAAAAAAAAAAAAAAAAAAA222222244444
AAAAAAAAAAAAAAAAAAAAAAAAAAAAAAAAAAAAAAAAAAAAAAAAAAAA222222224444
AAAAAAAAAAAAAAAAAAAAAAAAAAAAAAAAAAAAAAAAAAAAAAAAAAAA222222222444
AAAAAAAAAAAAAAAAAAAAAAAAAAAAAAAAAAAAAAAAAAAAAAAAAAAA222222222244
AAAAAAAAAAAAAAAAAAAAAAAAAAAAAAAAAAAAAAAAAAAAAAAAAAAA222222222224
AAAAAAAAAAAAAAAAAAAAAAAAAAAAAAAAAAAAAAAAAAAAAAAAAAAA222222222222
AAAAAAAAAAAAAAAAAAAAAAAAAAAAAAAAAAAAAAAAAAAAAAAAAAAAA22222222222
AAAAAAAAAAAAAAAAAAAAAAAAAAAAAAAAAAAAAAAAAAAAAAAAAAAAAA2222222222
AAAAAAAAAAAAAAAAAAAAAAAAAAAAAAAAAAAAAAAAAAAAAAAAAAAAAAA222222222
AAAAAAAAAAAAAAAAAAAAAAAAAAAAAAAAAAAAAAAAAAAAAAAAAAAAAAAA22222222
AAAAAAAAAAAAAAAAAAAAAAAAAAAAAAAAAAAAAAAAAAAAAAAAAAAAAAAAA2222222
AAAAAAAAAAAAAAAAAAAAAAAAAAAAAAAAAAAAAAAAAAAAAAAAAAAAAAAAAA222222
AAAAAAAAAAAAAAAAAAAAAAAAAAAAAAAAAAAAAAAAAAAAAAAAAAAAAAAAAAA22222
AAAAAAAAAAAAAAAAAAAAAAAAAAAAAAAAAAAAAAAAAAAAAAAAAAAAAAAAAAAA2222
AAAAAAAAAAAAAAAAAAAAAAAAAAAAAAAAAAAAAAAAAAAAAAAAAAAAAAAAAAAAA222
AAAAAAAAAAAAAAAAAAAAAAAAAAAAAAAAAAAAAAAAAAAAAAAAAAAAAAAAAAAAAA22
AAAAAAAAAAAAAAAAAAAAAAAAAAAAAAAAAAAAAAAAAAAAAAAAAAAAAAAAAAAAAAA2
AAAAAAAAAAAAAAAAAAAAAAAAAAAAAAAAAAAAAAAAAAAAAAAAAAAAAAAAAAAAAAAA
AAAAAAAAAAAAAAAAAAAAAIAAAAAAAAAAAAAAAAAAAAAAAAAAAAAAAAAAAAAAAAAA
AAAAAAAAAAAAAAAAAAAAAIIAAAAAAAAAAAAAAAAAAAAAAAAAAAAAAAAAAAAAAAAA
AAAAAAAAAAAAAAAAAAAAAIIIAAAAAAAAAAAAAAAAAAAAAAAAAAAAAAAAAAAAAAAA
AAAAAAAAAAAAAAAAAAAAAIIIIAAAAAAAAAAAAAAAAAAAAAAAAAAAAAAAAAAAAAAA
AAAAAAAAAAAAAAAAAAAAIIIIIAAAAAAAAAAAAAAAAAAAAAAAAAAAAAAAAAAAAAAA
AAAAAAAAAAAAAAAAAAAAIIIIIIAAAAAAAAAAAAAAAAAAAAAAAAAAAAAAAAAAAAAA
AAAAAAAAAAAAAAAAAAAAIIIIIIIAAAAAAAAAAAAAAAAAAAAAAAAAAAAAAAAAAAAA
AAAAAAAAAAAAAAAAAAAAIIIIIIIIAAAAAAAAAAAAAAAAAAAAAAAAAAAAAAAAAAAA
AAAAAAAAAAAAAAAAAAAAIIIIIIIIIAAAAAAAAAAAAAAAAAAAAAAAAAAAAAAAAAAA
AAAAAAAAAAAAAAAAAAAAIIIIIIIIIIAAAAAAAAAAAAAAAAAAAAAAAAAAAAAAAAAA
AAAAAAAAAAAAAAAAAAAAIIIIIIIIIIIAAAAAAAAAAAAAAAAAAAAAAAAAAAAAAAAA
AAAAAAAAAAAAAAAAAAAAIIIIIIIIIIIIAAAAAAAAAAAAAAAAAAAAAAAAAAAAAAAA
AAAAAAAAAAAAAAAAAAAAIIIIIIIIIIIIIAAAAAAAAAAAAAAAAAAAAAAAAAAAAAAA
AAAAAAAAAAAAAAAAAAAAIIIIIIIIIIIIIIAAAAAAAAAAAAAAAAAAAAAAAAAAAAAA
AAAAAAAAAAAAAAAAAAAAIIIIIIIIIIIIIIIAAAAAAAAAAAAAAAAAAAAAAAAAAAAA
AAAAAAAAAAAAAAAAAAAAIIIIIIIIIIIIIIIIAAAAAAAAAAAAAAAAAAAAAAAAAAAA
AAAAAAAAAAAAAAAAAAAAIIIIIIIIIIIIIIIIIAAAAAAAAAAAAAAAAAAAAAAAAAAA
AAAAAAAAAAAAAAAAAAAAIIIIIIIIIIIIIIIIIIAAAAAAAAAAAAAAAAAAAAAAAAAA
AAAAAAAAAAAAAAAAAAAAIIIIIIIIIIIIIIIIIIIAAAAAAAAAAAAAAAAAAAAAAAAA
AAAAAAAAAAAAAAAAAAAAIIIIIIIIIIIIIIIIIIIIAAAAAAAAAAAAAAAAAAAAAAAA
AAAAAAAAAAAAAAAAAAAAIIIIIIIIIIIIIIIIIIIIIAAAAAAAAAAAAAAAAAAAAAAA
AAAAAAAAAAAAAAAAAAAAIIIIIIIIIIIIIIIIIIIIIIAAAAAAAAAAAAAAAAAAAAAA
AAAAAAAAAAAAAAAAAAAAIIIIIIIIIIIIIIIIIIIIIIIAAAAAAAAAAAAAAAAAAAAA
AAAAAAAAAAAAAAAAAAAAIIIIIIIIIIIIIIIIIIIIIIIIAAAAAAAAAAAAAAAAAAAA
AAAAAAAAAAAAAAAAAAAAIIIIIIIIIIIIIIIIIIIIIIIIAAAAAAIAAAAAAAAAAAAA
AAAAAAAAAAAAAAAAAAAAIIIIIIIIIIIIIIIIIIIIIIIIAAAAAAIIAAAAAAAAAAAA
AAAAAAAAAAAAAAAAAAAAIIIIIIIIIIIIIIIIIIIIIIIIAAAAAAIIIAAAAAAAAAAA
AAAAAAAAAAAAAAAAAAAAIIIIIIIIIIIIIIIIIIIIIIIIAAAAAAIIIAIAAAAAAAAA
AAAAAAAAAAAAAAAAAAAAIIIIIIIIIIIIIIIIIIIIIIIIAAAAAAIIIAIIAAAAAAAA
AAAAAAAAAAAAAAAAAAAAIIIIIIIIIIIIIIIIIIIIIIIIAAAAAAIIIIIIAAAAAAAA
AAAAAAAAAAAAAAAAAAAAIIIIIIIIIIIIIIIIIIIIIIIIAAAAAAIIIIIIIAAAAAAA
AAAAAAAAAAAAAAAAAAAAIIIIIIIIIIIIIIIIIIIIIIIIAAAAAAIIIIIIIIAAAAAA
AAAAAAAAAAAAAAAAAAAAIIIIIIIIIIIIIIIIIIIIIIIIAAAAAAIIIIIIIIIAAAAA
AAAAAAAAAAAAAAAAAAAAIIIIIIIIIIIIIIIIIIIIIIIIAAAAAAIIIIIIIIIIAAAA
AAAAAAAAAAAAAAAAAAAAIIIIIIIIIIIIIIIIIIIIIIIIAAAAAAIIIIIIIIIIIAAA
AAAAAAAAAAAAAAAAAAAAIIIIIIIIIIIIIIIIIIIIIIIIAAAAAAIIIIIIIIIIIIAA
AAAAAAAAAAAAAAAAAAAAIIIIIIIIIIIIIIIIIIIIIIIIAAAAAAIIIIIIIIIIIIIA
AAAAAAAAAAIAAAAAAAAAIIIIIIIIIIIIIIIIIIIIIIIIAAAAAAIIIIIIIIIIIIIA
AAAAAAAAAAIIAAAAAAAAIIIIIIIIIIIIIIIIIIIIIIIIAAAAAAIIIIIIIIIIIIIA
AAAAAAAAAAIIAAAIAAAAIIIIIIIIIIIIIIIIIIIIIIIIAAAAAAIIIIIIIIIIIIIA
AAAAAAAAAAIIAAAIAIAAIIIIIIIIIIIIIIIIIIIIIIIIAAAAAAIIIIIIIIIIIIIA
AAAAAAIAAAIIAAAIAIAAIIIIIIIIIIIIIIIIIIIIIIIIAAAAAAIIIIIIIIIIIIIA
AAAAAAIAIAIIAAAIAIAAIIIIIIIIIIIIIIIIIIIIIIIIAAAAAAIIIIIIIIIIIIIA
AAAAAAIAIIIIAAAIAIAAIIIIIIIIIIIIIIIIIIIIIIIIAAAAAAIIIIIIIIIIIIIA
AAAAAAIAIIIIIAAIAIAAIIIIIIIIIIIIIIIIIIIIIIIIAAAAAAIIIIIIIIIIIIIA
AAAAAAIAIIIIIIAIAIAAIIIIIIIIIIIIIIIIIIIIIIIIAAAAAAIIIIIIIIIIIIIA
AAAAAAIAIIIIIIIIAIAAIIIIIIIIIIIIIIIIIIIIIIIIAAAAAAIIIIIIIIIIIIIA
AAAAAAIAIIIIIIIIIIAAIIIIIIIIIIIIIIIIIIIIIIIIAAAAAAIIIIIIIIIIIIIA
AAAAAAIIIIIIIIIIIIAAIIIIIIIIIIIIIIIIIIIIIIIIAAAAAAIIIIIIIIIIIIIA
AAAAAAIIIIIIIIIIIIIAIIIIIIIIIIIIIIIIIIIIIIIIAAAAAAIIIIIIIIIIIIIA
AAAAAAIIIIIIIIIIIIIIIIIIIIIIIIIIIIIIIIIIIIIIAAAAAAIIIIIIIIIIIIIA
[MLOP] Prefetch Degree Mean: 9.53918
[MLOP] Prefetch Degree SD: 4.99410
[MLOP] Max Score Left Mean (%): 74.33679
[MLOP] Max Score Left SD (%): 6.40176
[MLOP] Max Score Right Mean (%): 99.43425
[MLOP] Max Score Right SD (%): 1.49655

Channel_0_RQ_row_buffer_hit 481628
Channel_0_RQ_row_buffer_miss 26815
Channel_0_WQ_row_buffer_hit 0
Channel_0_WQ_row_buffer_miss 1
Channel_0_WQ_full 0
Channel_0_dbus_congested 310052

avg_congested_cycle 10

DRAM_bw_pochs 267472
DRAM_bw_level_0 185013
DRAM_bw_level_1 37027
DRAM_bw_level_2 40944
DRAM_bw_level_3 4488
