*************************************************
   ChampSim Multicore Out-of-Order Simulator
   Last compiled: Apr  3 2025 20:54:34
*************************************************
parsing config file: /home/zir/Pythia/config/pythia.ini

trace_0 /home/zir/ChampSim/ML-DPC/ChampSimTraces/spec06/433.milc-s0.trace.gz
adding L2C_PREFETCHER: Scooby
Initialize SHIP state
warmup_instructions 10000000
simulation_instructions 50000000
champsim_seed 163
measure_ipc 0
measure_ipc_epoch 1000
measure_dram_bw 1
measure_dram_bw_epoch 256
measure_cache_acc 1
measure_cache_acc_epoch 1024
l1d_perfect 0
l2c_perfect 0
llc_perfect 0
l1d_semi_perfect 0
l2c_semi_perfect 0
llc_semi_perfect 0
semi_perfect_cache_page_buffer_size 64

num_cpus 1
cpu_freq 4000
dram_io_freq 2400
page_size 4096
block_size 64
max_read_per_cycle 8
max_fill_per_cycle 1
dram_channels 1
log2_dram_channels 0
dram_ranks 1
dram_banks 8
dram_rows 65536
dram_columns 128
dram_row_size 8
dram_size 4096
dram_pages 1048576

fetch_width 6
decode_width 6
exec_width 4
lq_width 2
sq_width 2
retire_width 4
scheduler_size 128
branch_mispredict_penalty 20
rob_size 256
lq_size 72
sq_size 56
num_instr_destinations_sparc 4
num_instr_destinations 2
num_instr_sources 4

itlb_set 16
itlb_way 8
itlb_rq_size 16
itlb_wq_size 16
itlb_pq_size 0
itlb_mshr_size 8
itlb_latency 1

dtlb_set 16
dtlb_way 4
dtlb_rq_size 16
dtlb_wq_size 16
dtlb_pq_size 0
dtlb_mshr_size 8
dtlb_latency 1

stlb_set 128
stlb_way 12
stlb_rq_size 32
stlb_wq_size 32
stlb_pq_size 0
stlb_mshr_size 16
stlb_latency 8

l1i_size 32
l1i_set 64
l1i_way 8
l1i_rq_size 64
l1i_wq_size 64
l1i_pq_size 8
l1i_mshr_size 8
l1i_latency 1

l1d_size 32
l1d_set 64
l1d_way 8
l1d_rq_size 64
l1d_wq_size 64
l1d_pq_size 8
l1d_mshr_size 16
l1d_latency 4

l2c_size 256
l2c_set 512
l2c_way 8
l2c_rq_size 32
l2c_wq_size 32
l2c_pq_size 32
l2c_mshr_size 32
l2c_latency 10

llc_size 2048
llc_set 2048
llc_way 16
llc_rq_size 32
llc_wq_size 32
llc_pq_size 32
llc_mshr_size 64
llc_latency 20

dram_channel_width 8
dram_wq_size 64
dram_rq_size 64
tRP 15
tRCD 15
tCAS 12.5
dram_dbus_turn_around_time 30
dram_write_high_wm 56
dram_write_low_wm 48
min_dram_writes_per_switch 16
dram_mtps 2400
dram_dbus_return_time 13

scooby_alpha 0.0065088
scooby_gamma 0.556301
scooby_epsilon 0.00182284
scooby_state_num_bits 10
scooby_max_states 1024
scooby_seed 200
scooby_policy EGreedy
scooby_learning_type SARSA
scooby_actions 1,3,4,5,10,11,12,22,23,30,32,-1,-3,-6,0,
scooby_max_actions 15
scooby_pt_size 256
scooby_st_size 64
scooby_max_pcs 5
scooby_max_offsets 5
scooby_max_deltas 5
scooby_reward_none -4
scooby_reward_incorrect -8
scooby_reward_correct_untimely 12
scooby_reward_correct_timely 20
scooby_brain_zero_init 0
scooby_enable_reward_all 0
scooby_enable_track_multiple 0
scooby_enable_reward_out_of_bounds 1
scooby_reward_out_of_bounds -12
scooby_state_type 1
scooby_state_hash_type 11
scooby_access_debug 0
scooby_print_access_debug 0
scooby_print_access_debug_pc deadbeef
scooby_print_access_debug_pc_count 0
scooby_print_trace 0
scooby_enable_state_action_stats 1
scooby_enable_reward_tracker_hit 0
scooby_reward_tracker_hit -2
scooby_enable_featurewise_engine 1
scooby_pref_degree 1
scooby_enable_dyn_degree 1
scooby_max_to_avg_q_thresholds 0.5,1,2,
scooby_dyn_degrees 1,2,4,4,
scooby_multi_deg_select_type 2
scooby_last_pref_offset_conf_thresholds 1,3,8,
scooby_dyn_degrees_type2 1,2,4,6,
scooby_action_tracker_size 2
scooby_high_bw_thresh 4
scooby_enable_hbw_reward 1
scooby_reward_hbw_correct_timely 20
scooby_reward_hbw_correct_untimely 12
scooby_reward_hbw_incorrect -14
scooby_reward_hbw_none -2
scooby_reward_hbw_out_of_bounds -12
scooby_reward_hbw_tracker_hit -2
scooby_last_pref_offset_conf_thresholds_hbw 1,3,8,
scooby_dyn_degrees_type2_hbw 1,2,4,6,

le_enable_trace 0
le_trace_interval 0
le_trace_file_name 
le_trace_state 0
le_enable_score_plot 0
le_plot_file_name 
le_plot_actions 
le_enable_action_trace 0
le_action_trace_interval 0
le_action_trace_name 
le_enable_action_plot 0

le_featurewise_active_features PC, PC_Delta
le_featurewise_num_tilings 3,3,
le_featurewise_num_tiles 128,128,
le_featurewise_hash_types 2,2,
le_featurewise_enable_tiling_offset 1,1,
le_featurewise_max_q_thresh 0.5
le_featurewise_enable_action_fallback 1
le_featurewise_feature_weights 1,1,
le_featurewise_enable_dynamic_weight 0
le_featurewise_weight_gradient 0.001
le_featurewise_disable_adjust_weight_all_features_align 1
le_featurewise_selective_update 0
le_featurewise_pooling_type 2
le_featurewise_enable_dyn_action_fallback 1
le_featurewise_bw_acc_check_level 1
le_featurewise_acc_thresh 2
le_featurewise_enable_trace 0
le_featurewise_trace_feature_type 0
le_featurewise_trace_feature 
le_featurewise_trace_interval 0
le_featurewise_trace_record_count 0
le_featurewise_trace_file_name 
le_featurewise_enable_score_plot 0
le_featurewise_plot_actions 
le_featurewise_plot_file_name 


Heartbeat CPU  0 instructions:    1000001 cycles:     417312 heartbeat IPC: 2.39629 cumulative IPC: 2.39629 (Simulation time: 0 hr 0 min 2 sec) 
Heartbeat CPU  0 instructions:    2000003 cycles:     834587 heartbeat IPC: 2.39651 cumulative IPC: 2.39640 (Simulation time: 0 hr 0 min 4 sec) 
Heartbeat CPU  0 instructions:    3000003 cycles:    1251850 heartbeat IPC: 2.39657 cumulative IPC: 2.39646 (Simulation time: 0 hr 0 min 6 sec) 
Heartbeat CPU  0 instructions:    4000000 cycles:    1669097 heartbeat IPC: 2.39665 cumulative IPC: 2.39651 (Simulation time: 0 hr 0 min 8 sec) 
Heartbeat CPU  0 instructions:    5000002 cycles:    2086397 heartbeat IPC: 2.39636 cumulative IPC: 2.39648 (Simulation time: 0 hr 0 min 9 sec) 
Heartbeat CPU  0 instructions:    6000001 cycles:    2503658 heartbeat IPC: 2.39658 cumulative IPC: 2.39649 (Simulation time: 0 hr 0 min 11 sec) 
Heartbeat CPU  0 instructions:    7000001 cycles:    2920915 heartbeat IPC: 2.39660 cumulative IPC: 2.39651 (Simulation time: 0 hr 0 min 13 sec) 
Heartbeat CPU  0 instructions:    8000000 cycles:    3338161 heartbeat IPC: 2.39667 cumulative IPC: 2.39653 (Simulation time: 0 hr 0 min 15 sec) 
Heartbeat CPU  0 instructions:    9000003 cycles:    3755433 heartbeat IPC: 2.39653 cumulative IPC: 2.39653 (Simulation time: 0 hr 0 min 16 sec) 
Heartbeat CPU  0 instructions:   10000003 cycles:    4172692 heartbeat IPC: 2.39659 cumulative IPC: 2.39654 (Simulation time: 0 hr 0 min 18 sec) 

Warmup complete CPU  0 instructions:   10000003 cycles:    4172692 (Simulation time: 0 hr 0 min 18 sec) 

Heartbeat CPU  0 instructions:   11000001 cycles:    5574264 heartbeat IPC: 0.71348 cumulative IPC: 0.71348 (Simulation time: 0 hr 0 min 21 sec) 
Heartbeat CPU  0 instructions:   12000000 cycles:    6968298 heartbeat IPC: 0.71734 cumulative IPC: 0.71541 (Simulation time: 0 hr 0 min 23 sec) 
Heartbeat CPU  0 instructions:   13000001 cycles:    8375579 heartbeat IPC: 0.71059 cumulative IPC: 0.71379 (Simulation time: 0 hr 0 min 25 sec) 
Heartbeat CPU  0 instructions:   14000001 cycles:    9781877 heartbeat IPC: 0.71109 cumulative IPC: 0.71312 (Simulation time: 0 hr 0 min 27 sec) 
Heartbeat CPU  0 instructions:   15000003 cycles:   11180530 heartbeat IPC: 0.71498 cumulative IPC: 0.71349 (Simulation time: 0 hr 0 min 30 sec) 
Heartbeat CPU  0 instructions:   16000000 cycles:   12580555 heartbeat IPC: 0.71427 cumulative IPC: 0.71362 (Simulation time: 0 hr 0 min 32 sec) 
Heartbeat CPU  0 instructions:   17000001 cycles:   13989689 heartbeat IPC: 0.70966 cumulative IPC: 0.71305 (Simulation time: 0 hr 0 min 34 sec) 
Heartbeat CPU  0 instructions:   18000001 cycles:   15386516 heartbeat IPC: 0.71591 cumulative IPC: 0.71341 (Simulation time: 0 hr 0 min 37 sec) 
Heartbeat CPU  0 instructions:   19000001 cycles:   16789608 heartbeat IPC: 0.71271 cumulative IPC: 0.71333 (Simulation time: 0 hr 0 min 39 sec) 
Heartbeat CPU  0 instructions:   20000000 cycles:   18188452 heartbeat IPC: 0.71488 cumulative IPC: 0.71348 (Simulation time: 0 hr 0 min 41 sec) 
Heartbeat CPU  0 instructions:   21000000 cycles:   19576256 heartbeat IPC: 0.72056 cumulative IPC: 0.71412 (Simulation time: 0 hr 0 min 43 sec) 
Heartbeat CPU  0 instructions:   22000003 cycles:   20970472 heartbeat IPC: 0.71725 cumulative IPC: 0.71438 (Simulation time: 0 hr 0 min 46 sec) 
Heartbeat CPU  0 instructions:   23000001 cycles:   22366359 heartbeat IPC: 0.71639 cumulative IPC: 0.71453 (Simulation time: 0 hr 0 min 48 sec) 
Heartbeat CPU  0 instructions:   24000000 cycles:   23760492 heartbeat IPC: 0.71729 cumulative IPC: 0.71473 (Simulation time: 0 hr 0 min 50 sec) 
Heartbeat CPU  0 instructions:   25000003 cycles:   25155249 heartbeat IPC: 0.71697 cumulative IPC: 0.71488 (Simulation time: 0 hr 0 min 53 sec) 
Heartbeat CPU  0 instructions:   26000001 cycles:   26557589 heartbeat IPC: 0.71309 cumulative IPC: 0.71477 (Simulation time: 0 hr 0 min 55 sec) 
Heartbeat CPU  0 instructions:   27000001 cycles:   27952186 heartbeat IPC: 0.71705 cumulative IPC: 0.71490 (Simulation time: 0 hr 0 min 57 sec) 
Heartbeat CPU  0 instructions:   28000000 cycles:   29348934 heartbeat IPC: 0.71595 cumulative IPC: 0.71496 (Simulation time: 0 hr 1 min 0 sec) 
Heartbeat CPU  0 instructions:   29000002 cycles:   30741211 heartbeat IPC: 0.71825 cumulative IPC: 0.71513 (Simulation time: 0 hr 1 min 2 sec) 
Heartbeat CPU  0 instructions:   30000002 cycles:   32148027 heartbeat IPC: 0.71083 cumulative IPC: 0.71492 (Simulation time: 0 hr 1 min 4 sec) 
Heartbeat CPU  0 instructions:   31000002 cycles:   33547316 heartbeat IPC: 0.71465 cumulative IPC: 0.71490 (Simulation time: 0 hr 1 min 6 sec) 
Heartbeat CPU  0 instructions:   32000000 cycles:   34947543 heartbeat IPC: 0.71417 cumulative IPC: 0.71487 (Simulation time: 0 hr 1 min 9 sec) 
Heartbeat CPU  0 instructions:   33000002 cycles:   36338427 heartbeat IPC: 0.71897 cumulative IPC: 0.71505 (Simulation time: 0 hr 1 min 11 sec) 
Heartbeat CPU  0 instructions:   34000003 cycles:   37740726 heartbeat IPC: 0.71312 cumulative IPC: 0.71497 (Simulation time: 0 hr 1 min 13 sec) 
Heartbeat CPU  0 instructions:   35000000 cycles:   39139097 heartbeat IPC: 0.71512 cumulative IPC: 0.71497 (Simulation time: 0 hr 1 min 15 sec) 
Heartbeat CPU  0 instructions:   36000000 cycles:   40536640 heartbeat IPC: 0.71554 cumulative IPC: 0.71499 (Simulation time: 0 hr 1 min 18 sec) 
Heartbeat CPU  0 instructions:   37000000 cycles:   41931089 heartbeat IPC: 0.71713 cumulative IPC: 0.71507 (Simulation time: 0 hr 1 min 20 sec) 
Heartbeat CPU  0 instructions:   38000001 cycles:   43321931 heartbeat IPC: 0.71899 cumulative IPC: 0.71521 (Simulation time: 0 hr 1 min 22 sec) 
Heartbeat CPU  0 instructions:   39000002 cycles:   44722635 heartbeat IPC: 0.71393 cumulative IPC: 0.71517 (Simulation time: 0 hr 1 min 25 sec) 
Heartbeat CPU  0 instructions:   40000000 cycles:   46114932 heartbeat IPC: 0.71824 cumulative IPC: 0.71527 (Simulation time: 0 hr 1 min 27 sec) 
Heartbeat CPU  0 instructions:   41000001 cycles:   47510611 heartbeat IPC: 0.71650 cumulative IPC: 0.71531 (Simulation time: 0 hr 1 min 29 sec) 
Heartbeat CPU  0 instructions:   42000001 cycles:   48903944 heartbeat IPC: 0.71770 cumulative IPC: 0.71538 (Simulation time: 0 hr 1 min 31 sec) 
Heartbeat CPU  0 instructions:   43000001 cycles:   50296867 heartbeat IPC: 0.71791 cumulative IPC: 0.71546 (Simulation time: 0 hr 1 min 34 sec) 
Heartbeat CPU  0 instructions:   44000000 cycles:   51564051 heartbeat IPC: 0.78915 cumulative IPC: 0.71743 (Simulation time: 0 hr 1 min 36 sec) 
Heartbeat CPU  0 instructions:   45000003 cycles:   52995635 heartbeat IPC: 0.69853 cumulative IPC: 0.71688 (Simulation time: 0 hr 1 min 39 sec) 
Heartbeat CPU  0 instructions:   46000001 cycles:   54546626 heartbeat IPC: 0.64475 cumulative IPC: 0.71466 (Simulation time: 0 hr 1 min 42 sec) 
Heartbeat CPU  0 instructions:   47000000 cycles:   56173394 heartbeat IPC: 0.61472 cumulative IPC: 0.71153 (Simulation time: 0 hr 1 min 45 sec) 
Heartbeat CPU  0 instructions:   48000000 cycles:   57914446 heartbeat IPC: 0.57437 cumulative IPC: 0.70709 (Simulation time: 0 hr 1 min 48 sec) 
Heartbeat CPU  0 instructions:   49000000 cycles:   59618484 heartbeat IPC: 0.58684 cumulative IPC: 0.70339 (Simulation time: 0 hr 1 min 51 sec) 
Heartbeat CPU  0 instructions:   50000002 cycles:   61216619 heartbeat IPC: 0.62573 cumulative IPC: 0.70121 (Simulation time: 0 hr 1 min 53 sec) 
Heartbeat CPU  0 instructions:   51000002 cycles:   62350216 heartbeat IPC: 0.88215 cumulative IPC: 0.70474 (Simulation time: 0 hr 1 min 55 sec) 
Heartbeat CPU  0 instructions:   52000000 cycles:   64446281 heartbeat IPC: 0.47708 cumulative IPC: 0.69682 (Simulation time: 0 hr 1 min 58 sec) 
Heartbeat CPU  0 instructions:   53000001 cycles:   66800252 heartbeat IPC: 0.42481 cumulative IPC: 0.68660 (Simulation time: 0 hr 2 min 1 sec) 
Heartbeat CPU  0 instructions:   54000003 cycles:   69114555 heartbeat IPC: 0.43210 cumulative IPC: 0.67753 (Simulation time: 0 hr 2 min 3 sec) 
Heartbeat CPU  0 instructions:   55000003 cycles:   71454630 heartbeat IPC: 0.42734 cumulative IPC: 0.66883 (Simulation time: 0 hr 2 min 6 sec) 
Heartbeat CPU  0 instructions:   56000000 cycles:   73775985 heartbeat IPC: 0.43078 cumulative IPC: 0.66089 (Simulation time: 0 hr 2 min 8 sec) 
Heartbeat CPU  0 instructions:   57000000 cycles:   76121287 heartbeat IPC: 0.42638 cumulative IPC: 0.65324 (Simulation time: 0 hr 2 min 11 sec) 
Heartbeat CPU  0 instructions:   58000000 cycles:   78474410 heartbeat IPC: 0.42497 cumulative IPC: 0.64601 (Simulation time: 0 hr 2 min 13 sec) 
Heartbeat CPU  0 instructions:   59000001 cycles:   80897971 heartbeat IPC: 0.41262 cumulative IPC: 0.63864 (Simulation time: 0 hr 2 min 16 sec) 
Heartbeat CPU  0 instructions:   60000000 cycles:   83349359 heartbeat IPC: 0.40793 cumulative IPC: 0.63150 (Simulation time: 0 hr 2 min 18 sec) 
Finished CPU 0 instructions: 50000002 cycles: 79176687 cumulative IPC: 0.63150 (Simulation time: 0 hr 2 min 18 sec) 

ChampSim completed all CPUs

[ROI Statistics]
Core_0_instructions 50000002
Core_0_cycles 79176687
Core_0_IPC 0.63150

Core_0_branch_prediction_accuracy 99.99772
Core_0_branch_MPKI 0.00044
Core_0_average_ROB_occupancy_at_mispredict 87.95455

Core_0_L1D_total_access 13984622
Core_0_L1D_total_hit 12905976
Core_0_L1D_total_miss 1078646
Core_0_L1D_loads 4862281
Core_0_L1D_load_hit 3851621
Core_0_L1D_load_miss 1010660
Core_0_L1D_RFOs 9122341
Core_0_L1D_RFO_hit 9054355
Core_0_L1D_RFO_miss 67986
Core_0_L1D_prefetches 0
Core_0_L1D_prefetch_hit 0
Core_0_L1D_prefetch_miss 0
Core_0_L1D_writebacks 0
Core_0_L1D_writeback_hit 0
Core_0_L1D_writeback_miss 0
Core_0_L1D_prefetch_requested 0
Core_0_L1D_prefetch_dropped 0
Core_0_L1D_prefetch_issued 0
Core_0_L1D_prefetch_filled 0
Core_0_L1D_prefetch_useful 0
Core_0_L1D_prefetch_useless 0
Core_0_L1D_prefetch_late 0
Core_0_L1D_average_miss_latency 110.45007

Core_0_L1D_rq_access 12336112
Core_0_L1D_rq_forward 0
Core_0_L1D_rq_merged 6983848
Core_0_L1D_rq_to_cache 5326965
Core_0_L1D_rq_full 0

Core_0_L1D_wq_access 9475878
Core_0_L1D_wq_forward 25299
Core_0_L1D_wq_merged 0
Core_0_L1D_wq_to_cache 9475878
Core_0_L1D_wq_full 0

Core_0_L1D_pq_access 0
Core_0_L1D_pq_forward 0
Core_0_L1D_pq_merged 0
Core_0_L1D_pq_to_cache 0
Core_0_L1D_pq_full 0

Core_0_L1D_acc_epochs 71972
Core_0_L1D_acc_level_0 71972
Core_0_L1D_acc_level_1 0
Core_0_L1D_acc_level_2 0
Core_0_L1D_acc_level_3 0
Core_0_L1D_acc_level_4 0
Core_0_L1D_acc_level_5 0
Core_0_L1D_acc_level_6 0
Core_0_L1D_acc_level_7 0
Core_0_L1D_acc_level_8 0
Core_0_L1D_acc_level_9 0

Core_0_L1I_total_access 11621488
Core_0_L1I_total_hit 11621464
Core_0_L1I_total_miss 24
Core_0_L1I_loads 11621488
Core_0_L1I_load_hit 11621464
Core_0_L1I_load_miss 24
Core_0_L1I_RFOs 0
Core_0_L1I_RFO_hit 0
Core_0_L1I_RFO_miss 0
Core_0_L1I_prefetches 0
Core_0_L1I_prefetch_hit 0
Core_0_L1I_prefetch_miss 0
Core_0_L1I_writebacks 0
Core_0_L1I_writeback_hit 0
Core_0_L1I_writeback_miss 0
Core_0_L1I_prefetch_requested 0
Core_0_L1I_prefetch_dropped 0
Core_0_L1I_prefetch_issued 0
Core_0_L1I_prefetch_filled 0
Core_0_L1I_prefetch_useful 0
Core_0_L1I_prefetch_useless 0
Core_0_L1I_prefetch_late 0
Core_0_L1I_average_miss_latency 279.12500

Core_0_L1I_rq_access 50000005
Core_0_L1I_rq_forward 0
Core_0_L1I_rq_merged 38378494
Core_0_L1I_rq_to_cache 11621511
Core_0_L1I_rq_full 0

Core_0_L1I_wq_access 0
Core_0_L1I_wq_forward 0
Core_0_L1I_wq_merged 0
Core_0_L1I_wq_to_cache 0
Core_0_L1I_wq_full 0

Core_0_L1I_pq_access 0
Core_0_L1I_pq_forward 0
Core_0_L1I_pq_merged 0
Core_0_L1I_pq_to_cache 0
Core_0_L1I_pq_full 0

Core_0_L1I_acc_epochs 71972
Core_0_L1I_acc_level_0 71972
Core_0_L1I_acc_level_1 0
Core_0_L1I_acc_level_2 0
Core_0_L1I_acc_level_3 0
Core_0_L1I_acc_level_4 0
Core_0_L1I_acc_level_5 0
Core_0_L1I_acc_level_6 0
Core_0_L1I_acc_level_7 0
Core_0_L1I_acc_level_8 0
Core_0_L1I_acc_level_9 0

Core_0_L2C_total_access 3164337
Core_0_L2C_total_hit 2084881
Core_0_L2C_total_miss 1079456
Core_0_L2C_loads 1010684
Core_0_L2C_load_hit 555072
Core_0_L2C_load_miss 455612
Core_0_L2C_RFOs 67986
Core_0_L2C_RFO_hit 0
Core_0_L2C_RFO_miss 67986
Core_0_L2C_prefetches 1669980
Core_0_L2C_prefetch_hit 1114128
Core_0_L2C_prefetch_miss 555852
Core_0_L2C_writebacks 415687
Core_0_L2C_writeback_hit 415681
Core_0_L2C_writeback_miss 6
Core_0_L2C_prefetch_requested 2517586
Core_0_L2C_prefetch_dropped 0
Core_0_L2C_prefetch_issued 2517586
Core_0_L2C_prefetch_filled 659770
Core_0_L2C_prefetch_useful 657070
Core_0_L2C_prefetch_useless 2686
Core_0_L2C_prefetch_late 163093
Core_0_L2C_average_miss_latency 216.18972

Core_0_L2C_rq_access 1078670
Core_0_L2C_rq_forward 0
Core_0_L2C_rq_merged 0
Core_0_L2C_rq_to_cache 1078670
Core_0_L2C_rq_full 0

Core_0_L2C_wq_access 415687
Core_0_L2C_wq_forward 0
Core_0_L2C_wq_merged 0
Core_0_L2C_wq_to_cache 415687
Core_0_L2C_wq_full 0

Core_0_L2C_pq_access 2517586
Core_0_L2C_pq_forward 0
Core_0_L2C_pq_merged 2616
Core_0_L2C_pq_to_cache 2514970
Core_0_L2C_pq_full 0

Core_0_L2C_acc_epochs 71972
Core_0_L2C_acc_level_0 2
Core_0_L2C_acc_level_1 2
Core_0_L2C_acc_level_2 39
Core_0_L2C_acc_level_3 4
Core_0_L2C_acc_level_4 57
Core_0_L2C_acc_level_5 334
Core_0_L2C_acc_level_6 1365
Core_0_L2C_acc_level_7 3758
Core_0_L2C_acc_level_8 10253
Core_0_L2C_acc_level_9 56158

Core_0_LLC_total_access 1493943
Core_0_LLC_total_hit 41893
Core_0_LLC_total_miss 1452050
Core_0_LLC_loads 292520
Core_0_LLC_load_hit 7
Core_0_LLC_load_miss 292513
Core_0_LLC_RFOs 67986
Core_0_LLC_RFO_hit 0
Core_0_LLC_RFO_miss 67986
Core_0_LLC_prefetches 718944
Core_0_LLC_prefetch_hit 117
Core_0_LLC_prefetch_miss 718827
Core_0_LLC_writebacks 414493
Core_0_LLC_writeback_hit 41769
Core_0_LLC_writeback_miss 372724
Core_0_LLC_prefetch_requested 0
Core_0_LLC_prefetch_dropped 0
Core_0_LLC_prefetch_issued 0
Core_0_LLC_prefetch_filled 822746
Core_0_LLC_prefetch_useful 4
Core_0_LLC_prefetch_useless 822178
Core_0_LLC_prefetch_late 0
Core_0_LLC_average_miss_latency 146.80107

Core_0_LLC_rq_access 360506
Core_0_LLC_rq_forward 0
Core_0_LLC_rq_merged 0
Core_0_LLC_rq_to_cache 360506
Core_0_LLC_rq_full 0

Core_0_LLC_wq_access 414493
Core_0_LLC_wq_forward 0
Core_0_LLC_wq_merged 0
Core_0_LLC_wq_to_cache 414493
Core_0_LLC_wq_full 0

Core_0_LLC_pq_access 822865
Core_0_LLC_pq_forward 0
Core_0_LLC_pq_merged 0
Core_0_LLC_pq_to_cache 822865
Core_0_LLC_pq_full 0

Core_0_LLC_acc_epochs 81396
Core_0_LLC_acc_level_0 81391
Core_0_LLC_acc_level_1 2
Core_0_LLC_acc_level_2 0
Core_0_LLC_acc_level_3 1
Core_0_LLC_acc_level_4 0
Core_0_LLC_acc_level_5 0
Core_0_LLC_acc_level_6 0
Core_0_LLC_acc_level_7 1
Core_0_LLC_acc_level_8 0
Core_0_LLC_acc_level_9 1

Core_0_major_page_fault 0
Core_0_minor_page_fault 87848

scooby_st_lookup 1165898
scooby_st_hit 1051408
scooby_st_evict 114426
scooby_st_insert 114490
scooby_st_streaming 0

scooby_predict_called 1165898
scooby_predict_out_of_bounds 205846
scooby_predict_action_1 575199
scooby_predict_issue_action_1 510513
scooby_predict_hit_action_1 64686
scooby_predict_out_of_bounds_action_1 7091
scooby_predict_action_3 324
scooby_predict_issue_action_3 319
scooby_predict_hit_action_3 5
scooby_predict_out_of_bounds_action_3 3
scooby_predict_action_4 321
scooby_predict_issue_action_4 309
scooby_predict_hit_action_4 12
scooby_predict_out_of_bounds_action_4 2
scooby_predict_action_5 305
scooby_predict_issue_action_5 296
scooby_predict_hit_action_5 9
scooby_predict_out_of_bounds_action_5 7
scooby_predict_action_10 325
scooby_predict_issue_action_10 319
scooby_predict_hit_action_10 6
scooby_predict_out_of_bounds_action_10 5
scooby_predict_action_11 298
scooby_predict_issue_action_11 291
scooby_predict_hit_action_11 7
scooby_predict_out_of_bounds_action_11 11
scooby_predict_action_12 194746
scooby_predict_issue_action_12 120291
scooby_predict_hit_action_12 74455
scooby_predict_out_of_bounds_action_12 10796
scooby_predict_action_22 166
scooby_predict_issue_action_22 165
scooby_predict_hit_action_22 1
scooby_predict_out_of_bounds_action_22 80
scooby_predict_action_23 133
scooby_predict_issue_action_23 133
scooby_predict_hit_action_23 0
scooby_predict_out_of_bounds_action_23 70
scooby_predict_action_30 130
scooby_predict_issue_action_30 129
scooby_predict_hit_action_30 1
scooby_predict_out_of_bounds_action_30 79
scooby_predict_action_32 187605
scooby_predict_issue_action_32 187605
scooby_predict_hit_action_32 0
scooby_predict_out_of_bounds_action_32 187647
scooby_predict_action_-1 135
scooby_predict_issue_action_-1 55
scooby_predict_hit_action_-1 80
scooby_predict_out_of_bounds_action_-1 6
scooby_predict_action_-3 126
scooby_predict_issue_action_-3 73
scooby_predict_hit_action_-3 53
scooby_predict_out_of_bounds_action_-3 14
scooby_predict_action_-6 93
scooby_predict_issue_action_-6 52
scooby_predict_hit_action_-6 41
scooby_predict_out_of_bounds_action_-6 35
scooby_predict_action_0 146
scooby_predict_issue_action_0 0
scooby_predict_hit_action_0 0
scooby_predict_out_of_bounds_action_0 0
scooby_predict_multi_deg_called 413045
scooby_predict_predicted 2517586
scooby_predict_multi_deg 1697036
scooby_predict_multi_deg_2 395959
scooby_predict_multi_deg_3 360961
scooby_predict_multi_deg_4 347065
scooby_predict_multi_deg_5 299642
scooby_predict_multi_deg_6 293409
scooby_predict_multi_deg_7 0
scooby_predict_multi_deg_8 0
scooby_predict_multi_deg_9 0
scooby_predict_multi_deg_10 0
scooby_predict_multi_deg_11 0
scooby_predict_multi_deg_12 0
scooby_predict_multi_deg_13 0
scooby_predict_multi_deg_14 0
scooby_predict_multi_deg_15 0
scooby_predict_multi_deg_16 0

scooby_selected_deg_1 407505
scooby_selected_deg_2 22411
scooby_selected_deg_3 0
scooby_selected_deg_4 52339
scooby_selected_deg_5 0
scooby_selected_deg_6 338295
scooby_selected_deg_7 0
scooby_selected_deg_8 0
scooby_selected_deg_9 0
scooby_selected_deg_10 0
scooby_selected_deg_11 0
scooby_selected_deg_12 0
scooby_selected_deg_13 0
scooby_selected_deg_14 0
scooby_selected_deg_15 0
scooby_selected_deg_16 0

scooby_state_4193f3|44|-1 38,36,39,32,43,36,38,38,37,34,73808,9,10,4,10,74212,
scooby_state_4193e0|13|13 38,37,35,39,40,40,38,29,8,4,73872,7,8,8,9,74212,
scooby_state_4193e0|45|13 38,37,36,38,38,36,40,25,9,5,73872,13,5,6,14,74212,
scooby_state_4193f3|12|-1 33,38,40,37,38,40,40,41,40,47,73779,13,9,11,6,74212,
scooby_state_4144ef|0|0 62,36,40,38,38,36,73898,8,12,7,4,5,6,13,9,74212,
scooby_state_4144ef|32|20 35,39,38,41,39,36,73903,12,14,14,6,11,8,7,9,74212,
scooby_state_417e70|2|0 31925,3,5,5,5,2,4,6,3,7,9,5,4,5,1,31989,
scooby_state_41802b|36|1 1,7,6,3,4,4,3,5,6,3,31935,3,4,1,3,31988,
scooby_state_417f4a|35|1 31921,4,1,3,7,7,7,8,3,3,4,6,4,3,7,31988,
scooby_state_41802b|4|1 7,8,5,1,3,1,5,3,1,1,31429,5,9,7,4,31489,
scooby_state_417e70|34|30 31436,4,4,3,4,4,4,3,4,4,1,5,3,5,5,31489,
scooby_state_417f4a|3|1 30439,3,6,3,3,3,2,2,4,5,9,1,3,4,5,30492,
scooby_state_41872c|21|1 1178,0,0,0,1,0,0,0,0,0,0,0,0,0,0,1179,
scooby_state_41872c|1|1 1156,0,0,0,0,0,0,0,0,1,0,0,0,0,0,1157,
scooby_state_4186fc|29|1 919,0,0,1,0,0,0,0,0,0,0,0,0,0,0,920,
scooby_state_4186fc|60|1 919,0,0,1,0,0,0,0,0,0,0,0,0,0,0,920,
scooby_state_4186fc|31|1 902,0,1,0,0,0,0,0,0,0,0,0,0,1,0,904,
scooby_state_4186fc|33|1 900,0,0,0,0,0,0,1,0,0,0,0,1,0,1,903,
scooby_state_4186fc|51|1 881,0,1,0,0,0,0,0,0,0,1,0,0,0,0,883,
scooby_state_4186fc|42|1 832,1,0,1,0,0,0,0,0,0,1,0,0,0,0,835,
scooby_state_4186fc|59|1 835,0,0,0,0,0,0,0,0,0,0,0,0,0,0,835,
scooby_state_4186fc|40|1 798,1,0,0,0,0,0,0,0,0,0,0,1,0,0,800,
scooby_state_4186fc|47|1 766,1,0,0,0,0,0,0,0,0,0,0,0,0,0,767,
scooby_state_41872c|55|1 761,0,0,0,0,0,0,1,0,0,0,0,0,0,0,762,
scooby_state_4186fc|56|1 752,1,0,1,0,0,0,0,0,1,0,0,0,0,0,755,
scooby_state_4186fc|58|1 753,0,0,0,0,0,0,0,0,0,0,1,0,0,0,754,
scooby_state_4186fc|45|1 737,0,0,0,0,0,1,0,0,0,0,0,0,0,0,738,
scooby_state_4186fc|32|1 722,0,0,0,0,0,0,0,0,0,1,0,1,0,0,724,
scooby_state_418727|6|1 721,0,0,0,0,0,0,0,0,0,0,0,0,0,0,721,
scooby_state_418727|11|1 718,0,0,0,0,0,0,0,0,0,0,0,0,0,0,718,
scooby_state_4186fc|43|1 712,0,0,0,2,0,0,0,0,0,0,0,0,0,0,714,
scooby_state_4186fc|36|1 711,0,0,0,0,0,0,0,0,0,1,0,0,0,0,712,
scooby_state_4186fc|22|1 697,0,0,0,0,0,0,0,0,0,0,0,0,0,0,697,
scooby_state_4186fc|53|1 694,0,0,0,0,0,0,0,0,0,0,0,0,1,1,696,
scooby_state_4186fc|54|1 692,0,0,0,0,0,0,0,0,0,0,0,0,0,0,692,
scooby_state_4186fc|49|1 681,0,0,0,0,1,0,0,0,0,0,0,0,0,0,682,
scooby_state_4186fc|38|1 677,0,0,0,0,0,1,0,0,1,0,0,0,0,0,679,
scooby_state_4186fc|37|1 672,0,0,0,0,0,0,1,1,0,0,0,0,0,0,674,
scooby_state_4186fc|34|1 657,0,0,0,1,0,0,0,0,0,0,0,0,0,0,658,
scooby_state_4186fc|62|1 652,1,0,0,0,0,0,0,0,0,1,0,0,0,0,654,
scooby_state_4186fc|44|1 652,0,0,0,0,0,0,1,0,0,0,0,0,0,0,653,
scooby_state_41872c|35|1 646,0,0,0,0,1,0,0,0,0,0,0,0,0,0,647,
scooby_state_41872c|39|1 645,0,0,0,0,0,0,0,0,0,0,0,0,0,0,645,
scooby_state_4186fc|48|1 638,0,0,0,0,0,0,0,0,0,0,0,0,0,0,638,
scooby_state_4186fc|57|1 636,0,0,0,1,0,0,0,0,0,0,0,0,0,0,637,
scooby_state_41872c|10|1 636,0,0,0,0,0,0,0,0,0,0,0,1,0,0,637,
scooby_state_4186fc|46|1 635,0,0,0,0,0,0,0,0,0,0,0,0,0,0,635,
scooby_state_41872c|52|1 632,0,0,0,0,0,0,0,1,0,0,0,0,0,0,633,
scooby_state_41872c|63|1 630,0,0,0,0,0,1,0,0,0,0,0,1,0,0,632,
scooby_state_41872c|12|1 630,0,0,0,0,0,0,0,0,0,0,0,0,1,0,631,
scooby_state_41872c|6|1 626,0,0,0,0,0,0,0,0,1,0,0,1,0,0,628,
scooby_state_41872c|13|1 625,0,0,0,0,1,0,0,0,0,1,0,0,0,0,627,
scooby_state_41872c|2|1 626,0,0,0,0,0,0,0,0,0,0,0,0,0,0,626,
scooby_state_4186fc|9|1 625,0,0,0,0,0,0,0,0,1,0,0,0,0,0,626,
scooby_state_4186d0|21|1 625,0,0,0,0,0,0,0,0,0,0,0,0,0,0,625,
scooby_state_4186f3|49|1 0,0,0,0,0,0,625,0,0,0,0,0,0,0,0,625,
scooby_state_4186d8|18|1 622,1,0,0,0,0,0,0,0,1,1,0,0,0,0,625,
scooby_state_418719|45|1 625,0,0,0,0,0,0,0,0,0,0,0,0,0,0,625,
scooby_state_4186d8|27|1 624,1,0,0,0,0,0,0,0,0,0,0,0,0,0,625,
scooby_state_4186d0|40|1 623,0,0,0,0,0,0,0,0,0,0,1,1,0,0,625,
scooby_state_418719|55|1 625,0,0,0,0,0,0,0,0,0,0,0,0,0,0,625,
scooby_state_4186d0|56|1 625,0,0,0,0,0,0,0,0,0,0,0,0,0,0,625,
scooby_state_4186d8|13|1 622,0,1,1,0,0,0,0,0,0,0,0,0,1,0,625,
scooby_state_418719|15|1 624,0,1,0,0,0,0,0,0,0,0,0,0,0,0,625,
scooby_state_4186d0|6|1 624,1,0,0,0,0,0,0,0,0,0,0,0,0,0,625,
scooby_state_418727|3|1 624,0,0,0,1,0,0,0,0,0,0,0,0,0,0,625,
scooby_state_4186f3|15|1 0,0,0,0,0,0,625,0,0,0,0,0,0,0,0,625,
scooby_state_4186d0|30|1 625,0,0,0,0,0,0,0,0,0,0,0,0,0,0,625,
scooby_state_418719|16|1 624,0,0,0,0,0,0,0,1,0,0,0,0,0,0,625,
scooby_state_4186d0|17|1 625,0,0,0,0,0,0,0,0,0,0,0,0,0,0,625,
scooby_state_4186f3|11|1 0,0,0,0,0,0,625,0,0,0,0,0,0,0,0,625,
scooby_state_4186f3|12|1 1,0,0,0,0,0,623,0,0,0,0,0,0,1,0,625,
scooby_state_4186f3|38|1 0,0,0,0,1,0,624,0,0,0,0,0,0,0,0,625,
scooby_state_4186f3|28|1 0,1,0,0,0,0,624,0,0,0,0,0,0,0,0,625,
scooby_state_4186f3|26|1 0,0,0,0,0,0,624,1,0,0,0,0,0,0,0,625,
scooby_state_418719|56|1 624,0,1,0,0,0,0,0,0,0,0,0,0,0,0,625,
scooby_state_4186d8|1|1 625,0,0,0,0,0,0,0,0,0,0,0,0,0,0,625,
scooby_state_4186d8|39|1 623,0,0,0,0,0,0,0,0,0,0,1,0,1,0,625,
scooby_state_4186d8|23|1 625,0,0,0,0,0,0,0,0,0,0,0,0,0,0,625,
scooby_state_4186d0|24|1 624,0,0,0,0,0,1,0,0,0,0,0,0,0,0,625,
scooby_state_418719|43|1 625,0,0,0,0,0,0,0,0,0,0,0,0,0,0,625,
scooby_state_41872c|24|1 625,0,0,0,0,0,0,0,0,0,0,0,0,0,0,625,
scooby_state_4186f3|4|1 0,0,0,0,0,0,625,0,0,0,0,0,0,0,0,625,
scooby_state_4186d0|25|1 624,0,0,0,0,0,0,0,0,1,0,0,0,0,0,625,
scooby_state_418719|20|1 624,0,0,0,0,0,0,0,0,0,1,0,0,0,0,625,
scooby_state_4186d8|25|1 624,0,0,0,0,0,0,0,1,0,0,0,0,0,0,625,
scooby_state_4186f3|22|1 0,0,0,0,0,0,624,0,0,0,0,0,1,0,0,625,
scooby_state_418719|21|1 622,1,0,0,0,0,0,0,1,0,0,0,0,0,1,625,
scooby_state_4186f3|36|1 0,0,0,0,0,0,624,0,0,1,0,0,0,0,0,625,
scooby_state_4186d8|48|1 623,0,1,0,1,0,0,0,0,0,0,0,0,0,0,625,
scooby_state_4186f3|3|1 0,0,0,0,1,0,623,0,0,0,0,1,0,0,0,625,
scooby_state_4186d8|31|1 624,0,1,0,0,0,0,0,0,0,0,0,0,0,0,625,
scooby_state_418719|40|1 622,0,0,0,1,1,0,0,0,0,0,0,1,0,0,625,
scooby_state_4186d0|32|1 625,0,0,0,0,0,0,0,0,0,0,0,0,0,0,625,
scooby_state_4186f3|24|1 0,0,0,0,2,0,623,0,0,0,0,0,0,0,0,625,
scooby_state_418719|35|1 625,0,0,0,0,0,0,0,0,0,0,0,0,0,0,625,
scooby_state_418719|31|1 625,0,0,0,0,0,0,0,0,0,0,0,0,0,0,625,
scooby_state_4186f3|27|1 1,0,0,0,0,0,623,1,0,0,0,0,0,0,0,625,
scooby_state_4186f3|62|1 0,0,0,0,0,0,625,0,0,0,0,0,0,0,0,625,
scooby_state_4186f3|58|1 0,0,0,0,0,0,623,0,0,0,0,0,1,0,1,625,
scooby_state_4186d0|29|1 625,0,0,0,0,0,0,0,0,0,0,0,0,0,0,625,
scooby_state_418719|11|1 623,0,0,0,0,0,0,0,0,0,0,1,0,0,1,625,
scooby_state_4186d8|24|1 622,1,0,0,1,0,0,0,0,0,1,0,0,0,0,625,
scooby_state_4186d8|42|1 625,0,0,0,0,0,0,0,0,0,0,0,0,0,0,625,
scooby_state_4186d8|7|1 625,0,0,0,0,0,0,0,0,0,0,0,0,0,0,625,
scooby_state_4186d8|12|1 623,0,0,0,0,0,0,0,1,0,0,0,0,0,1,625,
scooby_state_4186f3|45|1 0,0,0,0,0,1,623,0,1,0,0,0,0,0,0,625,
scooby_state_418719|34|1 622,0,0,0,0,0,0,0,0,0,1,1,1,0,0,625,
scooby_state_418719|39|1 622,1,0,1,0,0,0,1,0,0,0,0,0,0,0,625,
scooby_state_4186f3|25|1 0,0,0,0,0,0,625,0,0,0,0,0,0,0,0,625,
scooby_state_4186d8|19|1 625,0,0,0,0,0,0,0,0,0,0,0,0,0,0,625,
scooby_state_4186f3|30|1 0,0,0,0,0,0,625,0,0,0,0,0,0,0,0,625,
scooby_state_418719|23|1 623,0,0,0,1,0,0,1,0,0,0,0,0,0,0,625,
scooby_state_4186d8|30|1 623,0,0,0,0,1,0,0,0,0,0,0,0,0,1,625,
scooby_state_4186f3|48|1 0,1,0,0,0,0,624,0,0,0,0,0,0,0,0,625,
scooby_state_4186d8|41|1 625,0,0,0,0,0,0,0,0,0,0,0,0,0,0,625,
scooby_state_4186f3|33|1 0,0,0,0,0,0,625,0,0,0,0,0,0,0,0,625,
scooby_state_418719|30|1 624,0,0,0,0,0,0,0,1,0,0,0,0,0,0,625,
scooby_state_418719|58|1 625,0,0,0,0,0,0,0,0,0,0,0,0,0,0,625,
scooby_state_4186d0|38|1 622,1,1,0,0,0,0,1,0,0,0,0,0,0,0,625,
scooby_state_4186d0|37|1 624,0,0,0,0,0,0,0,0,0,0,0,0,0,1,625,
scooby_state_418719|38|1 624,0,0,0,0,0,0,1,0,0,0,0,0,0,0,625,
scooby_state_4186d0|39|1 622,0,1,0,0,0,0,0,1,0,0,0,1,0,0,625,
scooby_state_418719|25|1 623,0,0,0,1,0,0,0,0,1,0,0,0,0,0,625,
scooby_state_418719|22|1 623,0,0,0,0,0,0,0,1,0,0,0,0,0,1,625,
scooby_state_4186d0|62|1 622,0,0,0,0,1,0,0,2,0,0,0,0,0,0,625,
scooby_state_4186d0|11|1 625,0,0,0,0,0,0,0,0,0,0,0,0,0,0,625,
scooby_state_4186d8|38|1 625,0,0,0,0,0,0,0,0,0,0,0,0,0,0,625,
scooby_state_418719|54|1 623,1,0,0,0,0,0,0,0,0,0,0,0,1,0,625,
scooby_state_4186f3|40|1 0,0,0,0,0,0,625,0,0,0,0,0,0,0,0,625,
scooby_state_4186f3|53|1 0,0,0,0,0,0,625,0,0,0,0,0,0,0,0,625,
scooby_state_4186d0|42|1 625,0,0,0,0,0,0,0,0,0,0,0,0,0,0,625,
scooby_state_4186f3|43|1 0,0,0,0,0,0,625,0,0,0,0,0,0,0,0,625,
scooby_state_418719|44|1 622,0,0,0,1,1,0,0,0,0,1,0,0,0,0,625,
scooby_state_4186f3|18|1 0,0,0,0,0,0,624,1,0,0,0,0,0,0,0,625,
scooby_state_418719|7|1 625,0,0,0,0,0,0,0,0,0,0,0,0,0,0,625,
scooby_state_4186d8|37|1 625,0,0,0,0,0,0,0,0,0,0,0,0,0,0,625,
scooby_state_4186d8|44|1 624,0,0,0,0,0,0,0,0,1,0,0,0,0,0,625,
scooby_state_4186d0|14|1 623,0,0,0,0,0,0,0,1,1,0,0,0,0,0,625,
scooby_state_4186d0|47|1 623,0,0,1,0,0,0,0,0,0,0,0,0,0,1,625,
scooby_state_4186d0|57|1 623,0,0,0,0,0,0,0,1,0,0,0,0,0,1,625,
scooby_state_4186d8|16|1 623,2,0,0,0,0,0,0,0,0,0,0,0,0,0,625,
scooby_state_4186d8|28|1 623,0,0,0,0,0,0,0,1,0,0,0,1,0,0,625,
scooby_state_4186d0|0|0 623,1,0,0,0,0,0,0,0,0,0,1,0,0,0,625,
scooby_state_418719|29|1 622,0,0,0,0,0,1,0,0,0,0,0,0,0,2,625,
scooby_state_418719|19|1 624,0,1,0,0,0,0,0,0,0,0,0,0,0,0,625,
scooby_state_418719|2|1 621,1,0,1,0,0,0,0,0,0,0,1,0,1,0,625,
scooby_state_4186f3|46|1 0,0,0,0,0,0,624,0,0,0,1,0,0,0,0,625,
scooby_state_418719|5|1 625,0,0,0,0,0,0,0,0,0,0,0,0,0,0,625,
scooby_state_4186d0|16|1 625,0,0,0,0,0,0,0,0,0,0,0,0,0,0,625,
scooby_state_4186f3|7|1 0,0,1,1,0,0,623,0,0,0,0,0,0,0,0,625,
scooby_state_4186d0|45|1 623,0,0,0,0,1,0,0,1,0,0,0,0,0,0,625,
scooby_state_4186d8|26|1 625,0,0,0,0,0,0,0,0,0,0,0,0,0,0,625,
scooby_state_4186f3|35|1 0,0,0,0,0,0,624,0,0,0,1,0,0,0,0,625,
scooby_state_4186d0|35|1 624,0,0,0,0,0,0,0,1,0,0,0,0,0,0,625,
scooby_state_418719|24|1 625,0,0,0,0,0,0,0,0,0,0,0,0,0,0,625,
scooby_state_4186f3|17|1 0,0,1,0,0,0,624,0,0,0,0,0,0,0,0,625,
scooby_state_4186f3|44|1 0,0,0,0,0,0,624,0,0,1,0,0,0,0,0,625,
scooby_state_4186d0|33|1 624,0,0,1,0,0,0,0,0,0,0,0,0,0,0,625,
scooby_state_4186f3|34|1 0,0,0,0,0,0,625,0,0,0,0,0,0,0,0,625,
scooby_state_4186d8|35|1 623,0,0,0,1,0,0,1,0,0,0,0,0,0,0,625,
scooby_state_418719|33|1 625,0,0,0,0,0,0,0,0,0,0,0,0,0,0,625,
scooby_state_4186d0|20|1 625,0,0,0,0,0,0,0,0,0,0,0,0,0,0,625,
scooby_state_4186d8|62|1 624,0,0,0,0,0,1,0,0,0,0,0,0,0,0,625,
scooby_state_4186d8|34|1 624,0,0,0,0,0,0,0,0,0,0,1,0,0,0,625,
scooby_state_4186f3|0|0 1,0,1,0,0,0,623,0,0,0,0,0,0,0,0,625,
scooby_state_4186d0|27|1 624,0,0,0,0,0,0,0,1,0,0,0,0,0,0,625,
scooby_state_4186d8|9|1 624,0,0,0,0,0,0,0,0,0,0,0,0,0,1,625,
scooby_state_418719|1|1 625,0,0,0,0,0,0,0,0,0,0,0,0,0,0,625,
scooby_state_4186d0|2|1 623,0,0,2,0,0,0,0,0,0,0,0,0,0,0,625,
scooby_state_4186f3|6|1 0,0,0,0,0,1,624,0,0,0,0,0,0,0,0,625,
scooby_state_4186fc|4|1 624,0,0,0,0,0,0,0,0,0,0,0,1,0,0,625,
scooby_state_4186d8|17|1 624,0,0,0,0,0,0,0,0,0,0,1,0,0,0,625,
scooby_state_4186d0|59|1 623,0,0,0,0,0,0,0,1,0,0,1,0,0,0,625,
scooby_state_418719|13|1 623,0,1,0,0,0,0,0,0,1,0,0,0,0,0,625,
scooby_state_418719|28|1 623,0,0,0,0,0,0,0,1,0,1,0,0,0,0,625,
scooby_state_418719|6|1 624,0,0,0,0,0,0,0,0,0,0,0,1,0,0,625,
scooby_state_418719|26|1 625,0,0,0,0,0,0,0,0,0,0,0,0,0,0,625,
scooby_state_4186d8|21|1 625,0,0,0,0,0,0,0,0,0,0,0,0,0,0,625,
scooby_state_418719|37|1 625,0,0,0,0,0,0,0,0,0,0,0,0,0,0,625,
scooby_state_4186d8|49|1 624,0,0,0,0,0,0,1,0,0,0,0,0,0,0,625,
scooby_state_4186d8|3|1 624,0,0,0,0,1,0,0,0,0,0,0,0,0,0,625,
scooby_state_4186f3|21|1 0,0,0,0,0,1,624,0,0,0,0,0,0,0,0,625,
scooby_state_418719|59|1 625,0,0,0,0,0,0,0,0,0,0,0,0,0,0,625,
scooby_state_418719|47|1 624,1,0,0,0,0,0,0,0,0,0,0,0,0,0,625,
scooby_state_4186d0|48|1 625,0,0,0,0,0,0,0,0,0,0,0,0,0,0,625,
scooby_state_4186d0|4|1 625,0,0,0,0,0,0,0,0,0,0,0,0,0,0,625,
scooby_state_4186d0|51|1 622,1,0,1,0,0,0,0,0,1,0,0,0,0,0,625,
scooby_state_4186d8|50|1 623,0,0,1,0,0,0,0,1,0,0,0,0,0,0,625,
scooby_state_4186f3|52|1 0,0,0,0,0,0,625,0,0,0,0,0,0,0,0,625,
scooby_state_418719|53|1 624,0,0,1,0,0,0,0,0,0,0,0,0,0,0,625,
scooby_state_4186d8|56|1 624,0,0,0,0,0,0,0,0,0,0,0,0,0,1,625,
scooby_state_418719|27|1 624,0,0,0,0,0,0,0,0,0,0,0,1,0,0,625,
scooby_state_418727|15|1 625,0,0,0,0,0,0,0,0,0,0,0,0,0,0,625,
scooby_state_4186d0|10|1 623,0,0,0,1,1,0,0,0,0,0,0,0,0,0,625,
scooby_state_4186f3|61|1 0,0,0,0,0,0,625,0,0,0,0,0,0,0,0,625,
scooby_state_418719|62|1 625,0,0,0,0,0,0,0,0,0,0,0,0,0,0,625,
scooby_state_4186d8|60|1 625,0,0,0,0,0,0,0,0,0,0,0,0,0,0,625,
scooby_state_4186d0|19|1 624,0,0,0,1,0,0,0,0,0,0,0,0,0,0,625,
scooby_state_4186d0|63|1 624,0,0,0,0,0,0,0,0,0,0,0,0,1,0,625,
scooby_state_418719|50|1 625,0,0,0,0,0,0,0,0,0,0,0,0,0,0,625,
scooby_state_418719|57|1 625,0,0,0,0,0,0,0,0,0,0,0,0,0,0,625,
scooby_state_4186f3|13|1 0,0,1,0,0,0,624,0,0,0,0,0,0,0,0,625,
scooby_state_4186f3|31|1 0,0,0,1,0,0,624,0,0,0,0,0,0,0,0,625,
scooby_state_4186d0|18|1 624,0,0,0,0,0,0,0,0,1,0,0,0,0,0,625,
scooby_state_4186d0|12|1 624,0,0,0,0,0,0,0,0,0,0,1,0,0,0,625,
scooby_state_4186f3|10|1 0,0,0,0,0,0,625,0,0,0,0,0,0,0,0,625,
scooby_state_418719|4|1 624,0,0,0,0,0,0,0,0,0,0,0,0,0,1,625,
scooby_state_4186d8|43|1 623,1,0,0,1,0,0,0,0,0,0,0,0,0,0,625,
scooby_state_418719|41|1 625,0,0,0,0,0,0,0,0,0,0,0,0,0,0,625,
scooby_state_4186f3|55|1 0,0,0,0,0,0,625,0,0,0,0,0,0,0,0,625,
scooby_state_4186f3|23|1 1,0,0,0,0,0,623,0,1,0,0,0,0,0,0,625,
scooby_state_4186d8|58|1 623,0,0,0,0,0,0,0,0,1,1,0,0,0,0,625,
scooby_state_4186d0|36|1 625,0,0,0,0,0,0,0,0,0,0,0,0,0,0,625,
scooby_state_4186f3|37|1 0,0,0,0,0,0,625,0,0,0,0,0,0,0,0,625,
scooby_state_4186d0|13|1 625,0,0,0,0,0,0,0,0,0,0,0,0,0,0,625,
scooby_state_4186d8|55|1 624,0,0,0,0,0,0,0,0,1,0,0,0,0,0,625,
scooby_state_4186d8|45|1 625,0,0,0,0,0,0,0,0,0,0,0,0,0,0,625,
scooby_state_4186d0|7|1 623,0,1,0,0,0,0,0,1,0,0,0,0,0,0,625,
scooby_state_418719|32|1 623,0,0,0,1,1,0,0,0,0,0,0,0,0,0,625,
scooby_state_4186d0|15|1 624,0,0,0,0,0,1,0,0,0,0,0,0,0,0,625,
scooby_state_418719|17|1 622,0,0,0,1,0,0,0,0,0,1,0,0,0,1,625,
scooby_state_4186d8|33|1 624,0,0,0,0,0,0,1,0,0,0,0,0,0,0,625,
scooby_state_4186d0|58|1 625,0,0,0,0,0,0,0,0,0,0,0,0,0,0,625,
scooby_state_4186f3|14|1 0,0,0,0,0,0,625,0,0,0,0,0,0,0,0,625,
scooby_state_4186d0|22|1 625,0,0,0,0,0,0,0,0,0,0,0,0,0,0,625,
scooby_state_418719|60|1 625,0,0,0,0,0,0,0,0,0,0,0,0,0,0,625,
scooby_state_4186f3|32|1 0,0,0,0,0,0,624,0,1,0,0,0,0,0,0,625,
scooby_state_4186d0|23|1 624,0,0,0,0,0,0,0,0,0,1,0,0,0,0,625,
scooby_state_4186f3|59|1 0,0,1,0,0,0,624,0,0,0,0,0,0,0,0,625,
scooby_state_418719|42|1 624,0,0,0,1,0,0,0,0,0,0,0,0,0,0,625,
scooby_state_418719|51|1 625,0,0,0,0,0,0,0,0,0,0,0,0,0,0,625,
scooby_state_4186d8|57|1 623,1,0,0,0,0,0,0,0,0,0,0,1,0,0,625,
scooby_state_4186d0|46|1 624,0,0,0,0,0,0,0,1,0,0,0,0,0,0,625,
scooby_state_4186d0|54|1 625,0,0,0,0,0,0,0,0,0,0,0,0,0,0,625,
scooby_state_418719|0|0 625,0,0,0,0,0,0,0,0,0,0,0,0,0,0,625,
scooby_state_4186d8|32|1 624,0,0,0,0,0,0,0,0,1,0,0,0,0,0,625,
scooby_state_418719|14|1 625,0,0,0,0,0,0,0,0,0,0,0,0,0,0,625,
scooby_state_418719|9|1 625,0,0,0,0,0,0,0,0,0,0,0,0,0,0,625,
scooby_state_4186f3|51|1 0,0,0,0,0,0,625,0,0,0,0,0,0,0,0,625,
scooby_state_4186d8|59|1 625,0,0,0,0,0,0,0,0,0,0,0,0,0,0,625,
scooby_state_4186d0|53|1 624,0,0,0,0,0,1,0,0,0,0,0,0,0,0,625,
scooby_state_418719|61|1 624,0,0,0,0,0,0,1,0,0,0,0,0,0,0,625,
scooby_state_4186d8|54|1 623,0,1,1,0,0,0,0,0,0,0,0,0,0,0,625,
scooby_state_4186f3|54|1 0,0,0,0,0,1,623,0,0,0,0,1,0,0,0,625,
scooby_state_4186f3|57|1 0,0,0,0,0,0,623,0,0,1,1,0,0,0,0,625,
scooby_state_4186d8|61|1 623,0,0,0,0,1,0,0,1,0,0,0,0,0,0,625,
scooby_state_4186d8|5|1 624,0,0,0,0,0,0,1,0,0,0,0,0,0,0,625,
scooby_state_4186f3|8|1 0,1,0,0,0,0,623,0,0,0,0,1,0,0,0,625,
scooby_state_4186f3|9|1 0,0,0,0,0,0,624,0,0,0,0,0,0,0,1,625,
scooby_state_4186fc|15|1 624,0,0,0,1,0,0,0,0,0,0,0,0,0,0,625,
scooby_state_4186f3|2|1 0,0,0,0,0,1,621,1,0,0,1,1,0,0,0,625,
scooby_state_418719|3|1 623,1,0,0,0,1,0,0,0,0,0,0,0,0,0,625,
scooby_state_4186d0|26|1 625,0,0,0,0,0,0,0,0,0,0,0,0,0,0,625,
scooby_state_4186d8|51|1 625,0,0,0,0,0,0,0,0,0,0,0,0,0,0,625,
scooby_state_4186d8|14|1 625,0,0,0,0,0,0,0,0,0,0,0,0,0,0,625,
scooby_state_4186d0|1|1 624,0,0,0,0,0,0,0,0,0,0,1,0,0,0,625,
scooby_state_4186f3|60|1 0,0,0,0,0,0,625,0,0,0,0,0,0,0,0,625,
scooby_state_4186f3|63|1 0,0,0,0,0,0,624,0,0,0,0,0,0,0,1,625,
scooby_state_4186d8|0|0 623,1,0,0,0,0,0,0,0,1,0,0,0,0,0,625,
scooby_state_4186d8|46|1 625,0,0,0,0,0,0,0,0,0,0,0,0,0,0,625,
scooby_state_4186f3|47|1 1,0,0,0,0,0,624,0,0,0,0,0,0,0,0,625,
scooby_state_4186d0|60|1 624,0,0,0,0,0,0,0,0,0,0,0,0,1,0,625,
scooby_state_4186d8|36|1 624,0,0,0,1,0,0,0,0,0,0,0,0,0,0,625,
scooby_state_4186d0|44|1 625,0,0,0,0,0,0,0,0,0,0,0,0,0,0,625,
scooby_state_418719|46|1 624,0,0,0,0,0,1,0,0,0,0,0,0,0,0,625,
scooby_state_4186f3|56|1 0,0,0,0,0,0,624,0,0,0,0,0,0,0,1,625,
scooby_state_4186d8|22|1 623,0,1,0,0,0,0,1,0,0,0,0,0,0,0,625,
scooby_state_418727|41|1 623,0,0,0,0,2,0,0,0,0,0,0,0,0,0,625,
scooby_state_4186d0|8|1 623,1,0,0,0,1,0,0,0,0,0,0,0,0,0,625,
scooby_state_4186f3|50|1 0,0,0,0,0,1,623,0,0,0,0,0,1,0,0,625,
scooby_state_4186d8|53|1 624,1,0,0,0,0,0,0,0,0,0,0,0,0,0,625,
scooby_state_418719|52|1 624,0,0,0,1,0,0,0,0,0,0,0,0,0,0,625,
scooby_state_4186f3|5|1 0,0,0,0,0,0,624,0,1,0,0,0,0,0,0,625,
scooby_state_4186d0|49|1 625,0,0,0,0,0,0,0,0,0,0,0,0,0,0,625,
scooby_state_4186d0|5|1 625,0,0,0,0,0,0,0,0,0,0,0,0,0,0,625,
scooby_state_4186d0|55|1 624,0,1,0,0,0,0,0,0,0,0,0,0,0,0,625,
scooby_state_4186f3|20|1 0,0,0,0,0,0,623,0,0,1,0,1,0,0,0,625,
scooby_state_4186f3|39|1 0,0,0,0,0,0,625,0,0,0,0,0,0,0,0,625,
scooby_state_4186d8|40|1 625,0,0,0,0,0,0,0,0,0,0,0,0,0,0,625,
scooby_state_4186d0|28|1 625,0,0,0,0,0,0,0,0,0,0,0,0,0,0,625,
scooby_state_4186f3|42|1 0,0,0,0,0,0,624,0,0,0,0,0,0,1,0,625,
scooby_state_418719|18|1 623,0,0,0,0,0,0,1,0,0,0,0,0,1,0,625,
scooby_state_4186d8|47|1 624,0,0,0,0,0,1,0,0,0,0,0,0,0,0,625,
scooby_state_418719|12|1 625,0,0,0,0,0,0,0,0,0,0,0,0,0,0,625,
scooby_state_4186f3|29|1 0,0,0,0,0,0,622,0,1,0,0,1,0,0,1,625,
scooby_state_4186d0|43|1 624,0,0,0,1,0,0,0,0,0,0,0,0,0,0,625,
scooby_state_4186d8|63|1 623,0,0,1,0,0,0,0,0,1,0,0,0,0,0,625,
scooby_state_4186d0|9|1 624,0,0,0,0,0,0,0,0,0,0,1,0,0,0,625,
scooby_state_4186f3|16|1 0,0,0,0,0,0,624,0,0,0,0,0,1,0,0,625,
scooby_state_418719|49|1 624,1,0,0,0,0,0,0,0,0,0,0,0,0,0,625,
scooby_state_4186f3|19|1 1,0,0,0,0,0,624,0,0,0,0,0,0,0,0,625,
scooby_state_4186f3|41|1 0,0,0,0,0,0,624,0,0,0,1,0,0,0,0,625,
scooby_state_4186f3|1|1 0,0,0,0,0,1,624,0,0,0,0,0,0,0,0,625,
scooby_state_4186d8|2|1 621,1,1,1,0,0,0,1,0,0,0,0,0,0,0,625,
scooby_state_4186d8|15|1 624,0,0,0,0,0,0,0,0,0,0,0,0,0,1,625,
scooby_state_418727|19|1 625,0,0,0,0,0,0,0,0,0,0,0,0,0,0,625,
scooby_state_4186d0|3|1 623,0,0,0,0,0,0,1,0,0,0,0,1,0,0,625,
scooby_state_4186d0|50|1 624,0,1,0,0,0,0,0,0,0,0,0,0,0,0,625,
scooby_state_418719|10|1 623,0,0,0,0,1,0,0,0,0,0,0,1,0,0,625,
scooby_state_4186d8|29|1 624,0,0,0,0,0,0,0,0,1,0,0,0,0,0,625,
scooby_state_4186d0|61|1 624,0,0,0,0,1,0,0,0,0,0,0,0,0,0,625,
scooby_state_4186d0|34|1 624,0,0,0,0,0,0,0,0,0,1,0,0,0,0,625,
scooby_state_418719|36|1 623,0,0,1,0,0,0,0,0,0,0,1,0,0,0,625,
scooby_state_418719|8|1 622,0,0,1,0,0,0,1,0,0,0,0,1,0,0,625,
scooby_state_4186d0|41|1 623,1,0,0,0,0,0,1,0,0,0,0,0,0,0,625,
scooby_state_418719|63|1 624,0,0,0,0,0,0,0,1,0,0,0,0,0,0,625,
scooby_state_418719|48|1 625,0,0,0,0,0,0,0,0,0,0,0,0,0,0,625,
scooby_state_4186d0|31|1 623,0,0,0,0,0,0,1,1,0,0,0,0,0,0,625,
scooby_state_418727|17|1 625,0,0,0,0,0,0,0,0,0,0,0,0,0,0,625,
scooby_state_4186d8|52|1 623,0,0,0,0,1,0,0,0,0,0,1,0,0,0,625,
scooby_state_4186d8|4|1 624,0,0,0,0,0,0,0,1,0,0,0,0,0,0,625,
scooby_state_4186d0|52|1 622,1,0,0,1,0,0,1,0,0,0,0,0,0,0,625,
scooby_state_4186fc|8|1 620,1,0,0,0,0,0,1,0,0,0,1,0,0,1,624,
scooby_state_418727|2|1 623,0,0,0,0,0,0,0,0,0,1,0,0,0,0,624,
scooby_state_4186d8|10|1 622,0,0,0,0,0,0,0,0,0,0,0,1,0,1,624,
scooby_state_418727|16|1 623,0,0,0,0,0,0,0,0,0,0,0,0,0,0,623,
scooby_state_418727|27|1 621,0,0,1,1,0,0,0,0,0,0,0,0,0,0,623,
scooby_state_4186d8|20|1 623,0,0,0,0,0,0,0,0,0,0,0,0,0,0,623,
scooby_state_418727|18|1 622,0,1,0,0,0,0,0,0,0,0,0,0,0,0,623,
scooby_state_418727|13|1 621,0,0,0,0,0,0,0,0,0,0,0,1,1,0,623,
scooby_state_4186d8|8|1 623,0,0,0,0,0,0,0,0,0,0,0,0,0,0,623,
scooby_state_418727|23|1 622,0,0,0,0,0,0,0,0,0,0,0,0,1,0,623,
scooby_state_4186fc|7|1 621,0,0,0,0,0,0,0,0,0,0,1,0,0,0,622,
scooby_state_4186fc|61|1 620,0,0,1,0,0,0,0,0,0,0,0,1,0,0,622,
scooby_state_418727|14|1 621,0,0,0,0,0,0,0,0,0,1,0,0,0,0,622,
scooby_state_418727|5|1 621,0,0,1,0,0,0,0,0,0,0,0,0,0,0,622,
scooby_state_418727|25|1 622,0,0,0,0,0,0,0,0,0,0,0,0,0,0,622,
scooby_state_4186fc|11|1 619,0,1,1,0,0,1,0,0,0,0,0,0,0,0,622,
scooby_state_41872c|9|1 620,0,0,0,0,1,0,0,0,0,0,0,0,0,0,621,
scooby_state_418727|4|1 620,0,0,0,0,0,0,0,0,0,0,0,0,1,0,621,
scooby_state_4186fc|12|1 618,0,0,0,0,0,1,0,0,0,0,0,0,0,0,619,
scooby_state_4186fc|0|0 618,1,0,0,0,0,0,0,0,0,0,0,0,0,0,619,
scooby_state_4186fc|63|1 616,0,0,0,0,0,0,1,0,0,0,0,0,0,1,618,
scooby_state_4186fc|52|1 616,0,0,0,0,0,0,0,0,0,0,0,1,0,0,617,
scooby_state_4186fc|28|1 615,0,0,0,0,0,0,0,0,0,0,1,0,0,0,616,
scooby_state_4186fc|27|1 615,0,0,0,0,0,0,0,0,0,0,0,0,0,0,615,
scooby_state_4186fc|14|1 613,0,1,0,0,0,0,0,0,0,0,0,0,0,1,615,
scooby_state_418727|46|1 614,1,0,0,0,0,0,0,0,0,0,0,0,0,0,615,
scooby_state_4186fc|50|1 615,0,0,0,0,0,0,0,0,0,0,0,0,0,0,615,
scooby_state_4186fc|10|1 613,0,0,0,0,0,0,0,0,0,0,0,0,0,0,613,
scooby_state_4186fc|41|1 610,0,0,0,0,0,1,0,1,0,0,0,0,0,0,612,
scooby_state_4186fc|25|1 611,1,0,0,0,0,0,0,0,0,0,0,0,0,0,612,
scooby_state_4186fc|30|1 610,0,0,0,0,0,0,0,0,0,0,0,0,0,1,611,
scooby_state_418727|57|1 610,0,0,0,0,0,0,0,0,0,0,0,0,0,0,610,
scooby_state_4186fc|18|1 607,0,0,0,1,0,1,0,0,0,0,0,0,0,0,609,
scooby_state_418727|39|1 605,0,0,0,0,0,0,0,0,0,0,0,0,0,0,605,
scooby_state_418727|48|1 605,0,0,0,0,0,0,0,0,0,0,0,0,0,0,605,
scooby_state_4186fc|3|1 601,0,0,0,0,0,0,0,0,0,1,1,0,0,0,603,
scooby_state_418727|26|1 602,0,0,0,0,0,0,0,0,0,0,0,0,0,0,602,
scooby_state_418727|8|1 601,0,0,0,0,0,0,0,0,0,0,0,0,0,0,601,
scooby_state_418727|24|1 592,0,0,0,0,0,0,0,0,0,0,0,0,0,0,592,
scooby_state_4186fc|16|1 585,0,0,0,1,0,0,0,0,0,0,0,0,1,0,587,
scooby_state_418e00|56|1 580,0,0,0,0,0,0,0,0,0,1,0,0,0,0,581,
scooby_state_418df1|13|1 579,0,0,0,0,0,0,0,0,0,0,1,0,0,0,580,
scooby_state_418e00|12|1 578,0,0,0,0,0,0,1,0,0,1,0,0,0,0,580,
scooby_state_418df1|26|1 580,0,0,0,0,0,0,0,0,0,0,0,0,0,0,580,
scooby_state_418f47|41|1 580,0,0,0,0,0,0,0,0,0,0,0,0,0,0,580,
scooby_state_418df1|14|1 580,0,0,0,0,0,0,0,0,0,0,0,0,0,0,580,
scooby_state_418f47|53|1 580,0,0,0,0,0,0,0,0,0,0,0,0,0,0,580,
scooby_state_418e00|11|1 580,0,0,0,0,0,0,0,0,0,0,0,0,0,0,580,
scooby_state_418e00|24|1 579,0,1,0,0,0,0,0,0,0,0,0,0,0,0,580,
scooby_state_418dd0|4|1 578,1,0,0,0,0,1,0,0,0,0,0,0,0,0,580,
scooby_state_418dd9|4|1 578,0,0,1,0,0,0,0,0,0,0,0,1,0,0,580,
scooby_state_418f47|12|1 579,0,0,0,0,1,0,0,0,0,0,0,0,0,0,580,
scooby_state_418e91|49|1 580,0,0,0,0,0,0,0,0,0,0,0,0,0,0,580,
scooby_state_418df1|55|1 579,0,0,1,0,0,0,0,0,0,0,0,0,0,0,580,
scooby_state_418dd0|45|1 578,0,0,0,1,1,0,0,0,0,0,0,0,0,0,580,
scooby_state_418df1|19|1 578,1,0,0,0,0,1,0,0,0,0,0,0,0,0,580,
scooby_state_418f47|1|1 580,0,0,0,0,0,0,0,0,0,0,0,0,0,0,580,
scooby_state_418dd9|50|1 579,0,0,0,0,0,0,0,0,0,0,0,0,0,1,580,
scooby_state_418f47|36|1 580,0,0,0,0,0,0,0,0,0,0,0,0,0,0,580,
scooby_state_418f47|10|1 580,0,0,0,0,0,0,0,0,0,0,0,0,0,0,580,
scooby_state_418f47|37|1 580,0,0,0,0,0,0,0,0,0,0,0,0,0,0,580,
scooby_state_418e91|42|1 580,0,0,0,0,0,0,0,0,0,0,0,0,0,0,580,
scooby_state_418df1|29|1 579,0,0,0,0,0,0,1,0,0,0,0,0,0,0,580,
scooby_state_418e91|15|1 579,0,0,0,0,0,0,0,0,0,0,0,0,0,1,580,
scooby_state_418f47|4|1 579,0,0,0,0,0,0,0,0,0,0,0,0,1,0,580,
scooby_state_418dd0|51|1 580,0,0,0,0,0,0,0,0,0,0,0,0,0,0,580,
scooby_state_418e91|57|1 580,0,0,0,0,0,0,0,0,0,0,0,0,0,0,580,
scooby_state_418dd9|53|1 580,0,0,0,0,0,0,0,0,0,0,0,0,0,0,580,
scooby_state_418dd9|40|1 578,0,1,0,0,0,1,0,0,0,0,0,0,0,0,580,
scooby_state_418f47|0|0 579,0,0,0,0,0,0,0,0,1,0,0,0,0,0,580,
scooby_state_418df1|48|1 578,0,0,0,0,0,0,0,0,1,1,0,0,0,0,580,
scooby_state_418dd9|15|1 579,0,0,0,0,0,0,1,0,0,0,0,0,0,0,580,
scooby_state_418dd0|42|1 579,0,0,0,0,0,0,0,0,1,0,0,0,0,0,580,
scooby_state_418dd9|21|1 580,0,0,0,0,0,0,0,0,0,0,0,0,0,0,580,
scooby_state_418dd0|50|1 580,0,0,0,0,0,0,0,0,0,0,0,0,0,0,580,
scooby_state_418e91|46|1 580,0,0,0,0,0,0,0,0,0,0,0,0,0,0,580,
scooby_state_418e91|20|1 579,0,0,0,0,0,0,0,0,0,1,0,0,0,0,580,
scooby_state_418dd0|38|1 579,0,0,1,0,0,0,0,0,0,0,0,0,0,0,580,
scooby_state_418f47|3|1 579,0,0,0,1,0,0,0,0,0,0,0,0,0,0,580,
scooby_state_418e00|21|1 577,0,0,0,0,0,0,1,0,1,0,0,1,0,0,580,
scooby_state_418e00|35|1 579,0,0,0,0,1,0,0,0,0,0,0,0,0,0,580,
scooby_state_418e00|59|1 579,0,0,0,0,0,0,0,0,0,0,0,0,0,1,580,
scooby_state_418e91|43|1 577,1,0,0,0,0,0,0,0,0,0,0,2,0,0,580,
scooby_state_418dd9|19|1 579,0,0,0,0,0,1,0,0,0,0,0,0,0,0,580,
scooby_state_418e91|35|1 580,0,0,0,0,0,0,0,0,0,0,0,0,0,0,580,
scooby_state_418dd0|2|1 579,0,0,0,0,0,1,0,0,0,0,0,0,0,0,580,
scooby_state_418f47|50|1 578,0,0,0,0,0,0,1,0,0,0,0,1,0,0,580,
scooby_state_418dd9|62|1 580,0,0,0,0,0,0,0,0,0,0,0,0,0,0,580,
scooby_state_418df1|28|1 580,0,0,0,0,0,0,0,0,0,0,0,0,0,0,580,
scooby_state_418e00|63|1 577,1,0,0,1,0,1,0,0,0,0,0,0,0,0,580,
scooby_state_418f47|44|1 580,0,0,0,0,0,0,0,0,0,0,0,0,0,0,580,
scooby_state_418dd0|20|1 576,0,0,0,0,0,0,0,0,1,0,1,1,1,0,580,
scooby_state_418e91|53|1 578,0,0,0,0,0,1,1,0,0,0,0,0,0,0,580,
scooby_state_418f47|55|1 579,0,0,0,0,0,1,0,0,0,0,0,0,0,0,580,
scooby_state_418e91|58|1 580,0,0,0,0,0,0,0,0,0,0,0,0,0,0,580,
scooby_state_418e91|36|1 580,0,0,0,0,0,0,0,0,0,0,0,0,0,0,580,
scooby_state_418df1|62|1 580,0,0,0,0,0,0,0,0,0,0,0,0,0,0,580,
scooby_state_418df1|61|1 578,0,0,0,0,1,0,0,0,0,0,1,0,0,0,580,
scooby_state_418e00|30|1 579,0,0,0,0,0,0,0,0,1,0,0,0,0,0,580,
scooby_state_418dd9|57|1 575,1,2,0,0,0,0,0,1,0,0,1,0,0,0,580,
scooby_state_418dd0|54|1 579,0,0,0,0,0,0,0,0,0,0,1,0,0,0,580,
scooby_state_418e91|6|1 579,0,0,0,0,0,1,0,0,0,0,0,0,0,0,580,
scooby_state_418f47|19|1 578,1,0,1,0,0,0,0,0,0,0,0,0,0,0,580,
scooby_state_418dd0|29|1 578,0,0,0,0,0,0,1,0,0,1,0,0,0,0,580,
scooby_state_418dd9|36|1 580,0,0,0,0,0,0,0,0,0,0,0,0,0,0,580,
scooby_state_418dd0|26|1 579,1,0,0,0,0,0,0,0,0,0,0,0,0,0,580,
scooby_state_418dd9|25|1 579,0,0,0,0,0,0,0,0,0,0,0,0,1,0,580,
scooby_state_418f47|28|1 579,0,0,0,0,0,0,0,0,0,0,1,0,0,0,580,
scooby_state_418e00|62|1 580,0,0,0,0,0,0,0,0,0,0,0,0,0,0,580,
scooby_state_418dd9|0|0 576,1,1,0,1,0,0,0,0,0,0,0,1,0,0,580,
scooby_state_418e91|52|1 578,0,0,0,0,0,0,1,0,0,0,0,0,1,0,580,
scooby_state_418dd0|25|1 579,0,0,0,0,0,0,0,0,0,0,0,0,1,0,580,
scooby_state_418e00|18|1 580,0,0,0,0,0,0,0,0,0,0,0,0,0,0,580,
scooby_state_418e91|24|1 579,0,0,0,0,0,0,0,0,0,0,0,0,1,0,580,
scooby_state_418df1|34|1 579,0,0,1,0,0,0,0,0,0,0,0,0,0,0,580,
scooby_state_418e91|21|1 579,0,0,1,0,0,0,0,0,0,0,0,0,0,0,580,
scooby_state_418e00|17|1 580,0,0,0,0,0,0,0,0,0,0,0,0,0,0,580,
scooby_state_418df1|17|1 580,0,0,0,0,0,0,0,0,0,0,0,0,0,0,580,
scooby_state_418dd9|37|1 579,0,1,0,0,0,0,0,0,0,0,0,0,0,0,580,
scooby_state_418df1|41|1 580,0,0,0,0,0,0,0,0,0,0,0,0,0,0,580,
scooby_state_418f47|30|1 579,0,0,0,0,0,0,0,0,1,0,0,0,0,0,580,
scooby_state_418df1|43|1 579,1,0,0,0,0,0,0,0,0,0,0,0,0,0,580,
scooby_state_418f47|7|1 579,0,0,0,0,0,0,0,0,0,0,0,1,0,0,580,
scooby_state_418dd0|43|1 580,0,0,0,0,0,0,0,0,0,0,0,0,0,0,580,
scooby_state_418e00|33|1 579,0,0,0,0,0,0,0,0,0,0,0,0,0,1,580,
scooby_state_418dd9|56|1 579,0,0,0,0,0,0,0,0,0,0,0,0,0,1,580,
scooby_state_418dd9|34|1 579,0,0,0,0,0,0,0,1,0,0,0,0,0,0,580,
scooby_state_418df1|5|1 579,0,0,0,0,0,0,0,0,0,0,1,0,0,0,580,
scooby_state_418e00|51|1 580,0,0,0,0,0,0,0,0,0,0,0,0,0,0,580,
scooby_state_418e00|8|1 578,0,0,0,0,0,1,0,0,0,0,0,1,0,0,580,
scooby_state_418dd0|57|1 578,0,0,0,0,0,1,0,0,1,0,0,0,0,0,580,
scooby_state_418f47|59|1 579,0,0,0,0,0,0,0,0,0,0,0,1,0,0,580,
scooby_state_418e91|61|1 577,0,0,0,1,0,0,0,0,1,0,0,1,0,0,580,
scooby_state_418e91|12|1 579,0,0,0,0,0,0,0,0,0,0,0,1,0,0,580,
scooby_state_418dd9|55|1 577,1,0,0,0,0,0,0,1,0,0,1,0,0,0,580,
scooby_state_418dd0|8|1 579,0,0,0,0,0,0,0,0,1,0,0,0,0,0,580,
scooby_state_418df1|23|1 580,0,0,0,0,0,0,0,0,0,0,0,0,0,0,580,
scooby_state_418dd0|34|1 580,0,0,0,0,0,0,0,0,0,0,0,0,0,0,580,
scooby_state_418df1|58|1 579,0,0,0,0,0,0,0,0,0,1,0,0,0,0,580,
scooby_state_418dd9|42|1 577,0,1,1,0,0,0,1,0,0,0,0,0,0,0,580,
scooby_state_418dd9|12|1 577,0,0,0,0,0,1,1,1,0,0,0,0,0,0,580,
scooby_state_418e00|61|1 579,0,0,0,0,1,0,0,0,0,0,0,0,0,0,580,
scooby_state_418df1|4|1 579,0,0,0,0,0,0,0,0,0,0,0,0,0,1,580,
scooby_state_418df1|35|1 579,0,0,0,0,0,0,1,0,0,0,0,0,0,0,580,
scooby_state_418e00|36|1 578,0,0,0,0,1,0,0,0,1,0,0,0,0,0,580,
scooby_state_418e91|56|1 576,0,0,0,0,1,1,0,0,1,1,0,0,0,0,580,
scooby_state_418e91|26|1 580,0,0,0,0,0,0,0,0,0,0,0,0,0,0,580,
scooby_state_418e91|48|1 580,0,0,0,0,0,0,0,0,0,0,0,0,0,0,580,
scooby_state_418dd9|28|1 578,0,0,0,0,1,0,0,0,0,0,0,0,0,1,580,
scooby_state_418e91|11|1 579,1,0,0,0,0,0,0,0,0,0,0,0,0,0,580,
scooby_state_418e00|29|1 579,0,0,0,0,0,0,0,0,1,0,0,0,0,0,580,
scooby_state_418e00|53|1 577,0,0,0,0,1,0,0,0,0,0,1,0,1,0,580,
scooby_state_418f47|9|1 580,0,0,0,0,0,0,0,0,0,0,0,0,0,0,580,
scooby_state_418e00|9|1 579,1,0,0,0,0,0,0,0,0,0,0,0,0,0,580,
scooby_state_418dd9|30|1 579,0,0,0,0,0,0,0,0,0,1,0,0,0,0,580,
scooby_state_418dd0|19|1 578,0,1,0,0,0,0,0,0,0,1,0,0,0,0,580,
scooby_state_418df1|42|1 580,0,0,0,0,0,0,0,0,0,0,0,0,0,0,580,
scooby_state_418dd0|40|1 579,0,0,0,0,0,1,0,0,0,0,0,0,0,0,580,
scooby_state_418f47|25|1 580,0,0,0,0,0,0,0,0,0,0,0,0,0,0,580,
scooby_state_418dd0|62|1 579,0,0,0,0,0,0,0,0,0,0,0,1,0,0,580,
scooby_state_418e00|26|1 577,2,0,1,0,0,0,0,0,0,0,0,0,0,0,580,
scooby_state_418df1|2|1 578,0,1,0,0,0,0,1,0,0,0,0,0,0,0,580,
scooby_state_418dd9|27|1 579,0,0,0,1,0,0,0,0,0,0,0,0,0,0,580,
scooby_state_418dd0|28|1 578,0,0,0,0,0,1,0,0,0,0,0,0,0,1,580,
scooby_state_418df1|54|1 578,0,0,1,0,0,0,0,0,0,0,0,0,1,0,580,
scooby_state_418e91|29|1 580,0,0,0,0,0,0,0,0,0,0,0,0,0,0,580,
scooby_state_418df1|31|1 579,0,0,0,0,0,1,0,0,0,0,0,0,0,0,580,
scooby_state_418dd0|31|1 579,0,0,0,0,0,0,0,0,0,0,0,1,0,0,580,
scooby_state_418e00|52|1 579,0,0,0,0,0,0,0,0,1,0,0,0,0,0,580,
scooby_state_418f47|33|1 579,0,0,0,0,0,0,0,0,0,0,0,0,0,1,580,
scooby_state_418dd9|33|1 580,0,0,0,0,0,0,0,0,0,0,0,0,0,0,580,
scooby_state_418e00|55|1 579,0,0,1,0,0,0,0,0,0,0,0,0,0,0,580,
scooby_state_418f47|15|1 577,1,0,1,0,0,0,0,0,0,1,0,0,0,0,580,
scooby_state_418e00|32|1 580,0,0,0,0,0,0,0,0,0,0,0,0,0,0,580,
scooby_state_418e91|51|1 580,0,0,0,0,0,0,0,0,0,0,0,0,0,0,580,
scooby_state_418f47|57|1 579,0,0,0,0,0,0,0,0,0,0,1,0,0,0,580,
scooby_state_418df1|37|1 580,0,0,0,0,0,0,0,0,0,0,0,0,0,0,580,
scooby_state_418dd0|13|1 578,0,0,0,0,0,0,1,0,0,0,0,0,0,1,580,
scooby_state_418dd0|37|1 579,0,0,0,0,0,0,0,0,1,0,0,0,0,0,580,
scooby_state_418dd9|61|1 580,0,0,0,0,0,0,0,0,0,0,0,0,0,0,580,
scooby_state_418e00|60|1 579,0,0,0,0,0,0,0,0,0,0,0,1,0,0,580,
scooby_state_418e00|38|1 580,0,0,0,0,0,0,0,0,0,0,0,0,0,0,580,
scooby_state_418f47|39|1 578,0,0,0,0,0,0,0,0,0,0,0,0,2,0,580,
scooby_state_418df1|20|1 579,0,1,0,0,0,0,0,0,0,0,0,0,0,0,580,
scooby_state_418f47|18|1 577,0,0,0,1,0,1,0,0,0,0,0,1,0,0,580,
scooby_state_418df1|11|1 579,0,0,0,0,0,0,0,0,0,0,1,0,0,0,580,
scooby_state_418dd9|6|1 579,0,0,0,0,0,0,0,0,0,0,0,0,0,1,580,
scooby_state_418f47|34|1 580,0,0,0,0,0,0,0,0,0,0,0,0,0,0,580,
scooby_state_418dd9|16|1 577,0,0,0,0,1,0,0,0,1,0,0,0,1,0,580,
scooby_state_418e00|20|1 578,1,0,1,0,0,0,0,0,0,0,0,0,0,0,580,
scooby_state_418f47|21|1 579,0,0,0,0,0,0,0,0,0,0,0,1,0,0,580,
scooby_state_418dd9|51|1 578,0,0,0,0,1,0,0,0,1,0,0,0,0,0,580,
scooby_state_418f47|6|1 579,0,0,1,0,0,0,0,0,0,0,0,0,0,0,580,
scooby_state_418dd9|47|1 576,0,0,1,0,0,0,0,0,0,0,1,1,1,0,580,
scooby_state_418dd9|3|1 579,0,0,0,0,1,0,0,0,0,0,0,0,0,0,580,
scooby_state_418dd0|14|1 579,0,0,0,0,0,0,0,0,0,0,0,0,1,0,580,
scooby_state_418df1|32|1 580,0,0,0,0,0,0,0,0,0,0,0,0,0,0,580,
scooby_state_418f47|22|1 577,0,0,0,1,1,0,0,0,0,0,0,0,0,1,580,
scooby_state_418dd0|22|1 578,0,0,0,1,0,0,1,0,0,0,0,0,0,0,580,
scooby_state_418e00|44|1 580,0,0,0,0,0,0,0,0,0,0,0,0,0,0,580,
scooby_state_418e91|17|1 580,0,0,0,0,0,0,0,0,0,0,0,0,0,0,580,
scooby_state_418dd0|16|1 580,0,0,0,0,0,0,0,0,0,0,0,0,0,0,580,
scooby_state_418f47|24|1 578,0,0,0,0,0,0,0,0,1,0,0,1,0,0,580,
scooby_state_418df1|25|1 579,0,0,0,0,0,0,0,0,0,1,0,0,0,0,580,
scooby_state_418dd0|55|1 580,0,0,0,0,0,0,0,0,0,0,0,0,0,0,580,
scooby_state_418dd9|44|1 580,0,0,0,0,0,0,0,0,0,0,0,0,0,0,580,
scooby_state_418df1|10|1 579,0,0,0,0,0,0,0,0,0,0,0,0,0,1,580,
scooby_state_418e91|27|1 577,0,0,0,0,0,0,0,0,1,2,0,0,0,0,580,
scooby_state_418e91|60|1 580,0,0,0,0,0,0,0,0,0,0,0,0,0,0,580,
scooby_state_418dd0|49|1 580,0,0,0,0,0,0,0,0,0,0,0,0,0,0,580,
scooby_state_418e00|50|1 579,0,0,0,0,0,0,0,0,0,0,1,0,0,0,580,
scooby_state_418e00|41|1 579,0,0,0,1,0,0,0,0,0,0,0,0,0,0,580,
scooby_state_418dd0|59|1 579,0,1,0,0,0,0,0,0,0,0,0,0,0,0,580,
scooby_state_418f47|51|1 579,0,0,0,1,0,0,0,0,0,0,0,0,0,0,580,
scooby_state_418e00|57|1 580,0,0,0,0,0,0,0,0,0,0,0,0,0,0,580,
scooby_state_418dd9|58|1 579,0,0,0,0,0,0,0,0,1,0,0,0,0,0,580,
scooby_state_418e91|2|1 578,0,1,0,0,0,0,0,0,0,0,0,1,0,0,580,
scooby_state_418dd9|31|1 580,0,0,0,0,0,0,0,0,0,0,0,0,0,0,580,
scooby_state_418e91|5|1 578,0,0,0,0,0,0,0,2,0,0,0,0,0,0,580,
scooby_state_418dd9|54|1 579,0,0,0,0,0,0,0,0,1,0,0,0,0,0,580,
scooby_state_418dd0|58|1 580,0,0,0,0,0,0,0,0,0,0,0,0,0,0,580,
scooby_state_418e91|63|1 579,0,0,0,0,0,0,0,1,0,0,0,0,0,0,580,
scooby_state_418e91|59|1 579,0,0,0,1,0,0,0,0,0,0,0,0,0,0,580,
scooby_state_418f47|58|1 580,0,0,0,0,0,0,0,0,0,0,0,0,0,0,580,
scooby_state_418e00|6|1 578,0,0,0,0,0,0,0,1,0,0,0,0,1,0,580,
scooby_state_418e00|14|1 578,0,0,1,1,0,0,0,0,0,0,0,0,0,0,580,
scooby_state_418dd0|48|1 578,0,0,1,0,1,0,0,0,0,0,0,0,0,0,580,
scooby_state_418f47|60|1 580,0,0,0,0,0,0,0,0,0,0,0,0,0,0,580,
scooby_state_418dd9|60|1 580,0,0,0,0,0,0,0,0,0,0,0,0,0,0,580,
scooby_state_418dd9|45|1 580,0,0,0,0,0,0,0,0,0,0,0,0,0,0,580,
scooby_state_418dd9|39|1 580,0,0,0,0,0,0,0,0,0,0,0,0,0,0,580,
scooby_state_418f47|61|1 579,0,0,1,0,0,0,0,0,0,0,0,0,0,0,580,
scooby_state_418e00|27|1 578,1,0,0,1,0,0,0,0,0,0,0,0,0,0,580,
scooby_state_418df1|40|1 580,0,0,0,0,0,0,0,0,0,0,0,0,0,0,580,
scooby_state_418e91|23|1 578,0,0,0,0,1,0,0,0,0,0,1,0,0,0,580,
scooby_state_418dd0|53|1 579,0,0,0,0,0,0,0,0,0,0,0,0,0,1,580,
scooby_state_418e91|41|1 577,1,0,0,1,0,1,0,0,0,0,0,0,0,0,580,
scooby_state_418f47|42|1 580,0,0,0,0,0,0,0,0,0,0,0,0,0,0,580,
scooby_state_418dd9|13|1 579,0,0,0,0,0,0,1,0,0,0,0,0,0,0,580,
scooby_state_418e91|44|1 577,0,0,0,1,0,0,0,0,0,0,1,0,0,1,580,
scooby_state_418f47|45|1 578,0,0,0,2,0,0,0,0,0,0,0,0,0,0,580,
scooby_state_418e00|47|1 579,0,0,0,1,0,0,0,0,0,0,0,0,0,0,580,
scooby_state_418e00|58|1 580,0,0,0,0,0,0,0,0,0,0,0,0,0,0,580,
scooby_state_418df1|46|1 580,0,0,0,0,0,0,0,0,0,0,0,0,0,0,580,
scooby_state_418dd0|61|1 580,0,0,0,0,0,0,0,0,0,0,0,0,0,0,580,
scooby_state_418f47|54|1 579,0,0,0,0,0,0,0,0,0,1,0,0,0,0,580,
scooby_state_418df1|38|1 578,0,0,0,0,1,0,0,0,0,0,0,0,0,1,580,
scooby_state_418e91|47|1 578,1,0,0,0,0,0,0,0,0,0,0,0,0,1,580,
scooby_state_418e91|0|0 580,0,0,0,0,0,0,0,0,0,0,0,0,0,0,580,
scooby_state_418df1|60|1 580,0,0,0,0,0,0,0,0,0,0,0,0,0,0,580,
scooby_state_418dd9|48|1 579,0,0,0,0,0,0,0,0,0,1,0,0,0,0,580,
scooby_state_418df1|49|1 580,0,0,0,0,0,0,0,0,0,0,0,0,0,0,580,
scooby_state_418dd0|1|1 579,0,0,0,0,0,0,0,0,1,0,0,0,0,0,580,
scooby_state_418e00|45|1 578,0,0,0,1,0,0,0,0,0,0,0,1,0,0,580,
scooby_state_418df1|8|1 580,0,0,0,0,0,0,0,0,0,0,0,0,0,0,580,
scooby_state_418dd0|47|1 580,0,0,0,0,0,0,0,0,0,0,0,0,0,0,580,
scooby_state_418df1|22|1 580,0,0,0,0,0,0,0,0,0,0,0,0,0,0,580,
scooby_state_418dd9|43|1 580,0,0,0,0,0,0,0,0,0,0,0,0,0,0,580,
scooby_state_418dd0|63|1 578,0,0,0,0,0,1,1,0,0,0,0,0,0,0,580,
scooby_state_418f47|47|1 580,0,0,0,0,0,0,0,0,0,0,0,0,0,0,580,
scooby_state_418df1|52|1 580,0,0,0,0,0,0,0,0,0,0,0,0,0,0,580,
scooby_state_418e91|62|1 580,0,0,0,0,0,0,0,0,0,0,0,0,0,0,580,
scooby_state_418df1|51|1 580,0,0,0,0,0,0,0,0,0,0,0,0,0,0,580,
scooby_state_418df1|16|1 579,0,0,1,0,0,0,0,0,0,0,0,0,0,0,580,
scooby_state_418df1|1|1 580,0,0,0,0,0,0,0,0,0,0,0,0,0,0,580,
scooby_state_418e00|5|1 579,0,0,0,0,0,0,0,0,1,0,0,0,0,0,580,
scooby_state_418dd9|59|1 578,0,0,0,0,0,0,0,1,0,0,0,0,0,1,580,
scooby_state_418df1|44|1 578,1,0,0,0,0,0,0,0,0,0,1,0,0,0,580,
scooby_state_418e91|54|1 579,0,0,0,0,0,0,0,0,1,0,0,0,0,0,580,
scooby_state_418e00|42|1 580,0,0,0,0,0,0,0,0,0,0,0,0,0,0,580,
scooby_state_418dd9|7|1 579,0,0,1,0,0,0,0,0,0,0,0,0,0,0,580,
scooby_state_418dd9|18|1 578,0,1,0,0,0,0,0,0,0,0,1,0,0,0,580,
scooby_state_418f47|62|1 580,0,0,0,0,0,0,0,0,0,0,0,0,0,0,580,
scooby_state_418dd9|9|1 577,0,0,1,0,1,0,0,0,1,0,0,0,0,0,580,
scooby_state_418e00|54|1 577,0,0,0,0,0,0,0,0,0,0,0,1,2,0,580,
scooby_state_418dd9|24|1 578,1,0,0,0,0,0,0,0,0,1,0,0,0,0,580,
scooby_state_418dd9|22|1 579,0,0,0,0,0,0,0,0,1,0,0,0,0,0,580,
scooby_state_418f47|52|1 579,0,1,0,0,0,0,0,0,0,0,0,0,0,0,580,
scooby_state_418df1|59|1 578,0,0,1,0,0,0,0,0,0,1,0,0,0,0,580,
scooby_state_418e91|9|1 579,0,0,1,0,0,0,0,0,0,0,0,0,0,0,580,
scooby_state_418e91|14|1 580,0,0,0,0,0,0,0,0,0,0,0,0,0,0,580,
scooby_state_418f47|27|1 580,0,0,0,0,0,0,0,0,0,0,0,0,0,0,580,
scooby_state_418e00|48|1 577,0,0,0,0,0,0,0,0,1,0,0,1,1,0,580,
scooby_state_418dd0|10|1 580,0,0,0,0,0,0,0,0,0,0,0,0,0,0,580,
scooby_state_418e00|0|0 579,0,0,0,0,0,0,0,1,0,0,0,0,0,0,580,
scooby_state_418dd9|49|1 578,0,1,0,0,0,0,1,0,0,0,0,0,0,0,580,
scooby_state_418e91|32|1 579,0,0,1,0,0,0,0,0,0,0,0,0,0,0,580,
scooby_state_418e91|39|1 579,1,0,0,0,0,0,0,0,0,0,0,0,0,0,580,
scooby_state_418dd0|35|1 580,0,0,0,0,0,0,0,0,0,0,0,0,0,0,580,
scooby_state_418f47|56|1 580,0,0,0,0,0,0,0,0,0,0,0,0,0,0,580,
scooby_state_418e00|43|1 579,0,0,0,0,0,0,0,0,0,0,0,1,0,0,580,
scooby_state_418df1|56|1 578,0,0,0,0,1,1,0,0,0,0,0,0,0,0,580,
scooby_state_418df1|45|1 580,0,0,0,0,0,0,0,0,0,0,0,0,0,0,580,
scooby_state_418dd9|52|1 579,0,0,0,0,0,0,0,0,0,0,1,0,0,0,580,
scooby_state_418e00|49|1 579,0,0,0,0,0,0,0,0,0,1,0,0,0,0,580,
scooby_state_418e00|2|1 580,0,0,0,0,0,0,0,0,0,0,0,0,0,0,580,
scooby_state_418f47|46|1 580,0,0,0,0,0,0,0,0,0,0,0,0,0,0,580,
scooby_state_418f47|40|1 579,0,0,0,0,0,0,1,0,0,0,0,0,0,0,580,
scooby_state_418dd9|46|1 579,0,0,0,0,0,0,0,1,0,0,0,0,0,0,580,
scooby_state_418f47|16|1 578,1,0,0,0,0,0,0,0,0,1,0,0,0,0,580,
scooby_state_418f47|43|1 578,0,1,0,0,0,0,0,0,0,0,0,0,0,1,580,
scooby_state_418dd0|5|1 576,0,1,0,0,0,0,0,0,0,1,0,1,0,1,580,
scooby_state_418e91|8|1 578,1,0,0,0,0,0,0,0,0,0,0,0,1,0,580,
scooby_state_418df1|50|1 580,0,0,0,0,0,0,0,0,0,0,0,0,0,0,580,
scooby_state_418e00|3|1 580,0,0,0,0,0,0,0,0,0,0,0,0,0,0,580,
scooby_state_418e91|55|1 580,0,0,0,0,0,0,0,0,0,0,0,0,0,0,580,
scooby_state_418e91|3|1 578,0,0,0,0,1,0,0,0,1,0,0,0,0,0,580,
scooby_state_418e91|50|1 580,0,0,0,0,0,0,0,0,0,0,0,0,0,0,580,
scooby_state_418f47|31|1 580,0,0,0,0,0,0,0,0,0,0,0,0,0,0,580,
scooby_state_418f47|49|1 579,0,0,0,0,0,0,0,0,0,1,0,0,0,0,580,
scooby_state_418dd0|7|1 578,1,0,0,0,0,0,0,0,0,0,0,0,0,1,580,
scooby_state_418dd0|32|1 578,1,0,0,0,1,0,0,0,0,0,0,0,0,0,580,
scooby_state_418dd0|44|1 579,0,0,0,0,0,0,0,0,0,0,0,1,0,0,580,
scooby_state_418df1|53|1 579,0,0,0,0,0,0,0,0,0,0,1,0,0,0,580,
scooby_state_418dd9|41|1 578,0,0,0,0,0,0,1,0,0,1,0,0,0,0,580,
scooby_state_418dd0|17|1 580,0,0,0,0,0,0,0,0,0,0,0,0,0,0,580,
scooby_state_418e00|23|1 578,0,0,0,1,0,0,0,0,0,0,0,1,0,0,580,
scooby_state_418df1|7|1 580,0,0,0,0,0,0,0,0,0,0,0,0,0,0,580,
scooby_state_418e91|33|1 580,0,0,0,0,0,0,0,0,0,0,0,0,0,0,580,
scooby_state_418dd0|11|1 579,0,1,0,0,0,0,0,0,0,0,0,0,0,0,580,
scooby_state_418e00|46|1 579,0,0,0,0,0,0,0,0,1,0,0,0,0,0,580,
scooby_state_418df1|57|1 578,0,0,0,1,0,1,0,0,0,0,0,0,0,0,580,
scooby_state_418dd0|60|1 578,0,0,0,0,0,1,0,0,1,0,0,0,0,0,580,
scooby_state_418dd0|52|1 578,0,0,0,0,0,1,0,0,0,1,0,0,0,0,580,
scooby_state_418e91|45|1 578,0,0,0,1,0,0,1,0,0,0,0,0,0,0,580,
scooby_state_418e91|18|1 579,0,0,0,0,0,0,0,0,1,0,0,0,0,0,580,
scooby_state_418e00|15|1 579,0,0,0,0,0,1,0,0,0,0,0,0,0,0,580,
scooby_state_418e00|39|1 580,0,0,0,0,0,0,0,0,0,0,0,0,0,0,580,
scooby_state_418e91|30|1 579,0,1,0,0,0,0,0,0,0,0,0,0,0,0,580,
scooby_state_418dd0|56|1 578,0,0,0,0,0,0,0,0,0,1,1,0,0,0,580,
scooby_state_418f47|13|1 579,0,0,1,0,0,0,0,0,0,0,0,0,0,0,580,
scooby_state_418e91|38|1 580,0,0,0,0,0,0,0,0,0,0,0,0,0,0,580,
scooby_state_418dd9|10|1 575,0,1,0,0,0,0,0,0,2,1,1,0,0,0,580,
scooby_state_418df1|47|1 580,0,0,0,0,0,0,0,0,0,0,0,0,0,0,580,
scooby_state_418f47|48|1 579,0,0,0,0,0,0,0,0,0,0,0,0,0,1,580,
scooby_state_418dd0|23|1 578,0,0,1,0,0,1,0,0,0,0,0,0,0,0,580,
scooby_state_418dd9|1|1 580,0,0,0,0,0,0,0,0,0,0,0,0,0,0,580,
scooby_state_418dd0|46|1 579,0,0,0,0,0,0,0,0,1,0,0,0,0,0,580,
scooby_state_418dd0|41|1 579,0,0,0,0,1,0,0,0,0,0,0,0,0,0,580,
scooby_state_418df1|63|1 578,1,0,0,0,0,0,1,0,0,0,0,0,0,0,580,
scooby_state_418df1|24|1 578,0,1,0,0,0,0,0,0,0,0,0,0,0,0,579,
scooby_state_418f47|17|1 579,0,0,0,0,0,0,0,0,0,0,0,0,0,0,579,
scooby_state_418e91|1|1 577,0,0,0,0,0,2,0,0,0,0,0,0,0,0,579,
scooby_state_418f47|11|1 579,0,0,0,0,0,0,0,0,0,0,0,0,0,0,579,
scooby_state_418dd9|20|1 577,0,1,1,0,0,0,0,0,0,0,0,0,0,0,579,
scooby_state_418e91|25|1 576,0,0,1,0,0,0,2,0,0,0,0,0,0,0,579,
scooby_state_418e91|4|1 579,0,0,0,0,0,0,0,0,0,0,0,0,0,0,579,
scooby_state_418e00|25|1 578,0,0,0,0,0,1,0,0,0,0,0,0,0,0,579,
scooby_state_418df1|6|1 577,1,0,0,0,0,0,0,0,0,0,0,0,1,0,579,
scooby_state_418df1|33|1 578,0,1,0,0,0,0,0,0,0,0,0,0,0,0,579,
scooby_state_418e00|1|1 578,1,0,0,0,0,0,0,0,0,0,0,0,0,0,579,
scooby_state_418df1|0|0 577,0,0,0,0,0,0,0,0,1,0,0,1,0,0,579,
scooby_state_418f47|14|1 578,0,0,0,0,0,0,1,0,0,0,0,0,0,0,579,
scooby_state_418e91|10|1 578,0,0,0,0,0,0,0,0,0,0,1,0,0,0,579,
scooby_state_418e00|10|1 578,0,0,1,0,0,0,0,0,0,0,0,0,0,0,579,
scooby_state_418df1|27|1 579,0,0,0,0,0,0,0,0,0,0,0,0,0,0,579,
scooby_state_418df1|9|1 579,0,0,0,0,0,0,0,0,0,0,0,0,0,0,579,
scooby_state_418dd9|8|1 578,0,0,0,0,1,0,0,0,0,0,0,0,0,0,579,
scooby_state_418f47|5|1 579,0,0,0,0,0,0,0,0,0,0,0,0,0,0,579,
scooby_state_418df1|15|1 579,0,0,0,0,0,0,0,0,0,0,0,0,0,0,579,
scooby_state_418f47|8|1 579,0,0,0,0,0,0,0,0,0,0,0,0,0,0,579,
scooby_state_418e00|4|1 579,0,0,0,0,0,0,0,0,0,0,0,0,0,0,579,
scooby_state_418dd9|2|1 579,0,0,0,0,0,0,0,0,0,0,0,0,0,0,579,
scooby_state_418e00|16|1 578,0,1,0,0,0,0,0,0,0,0,0,0,0,0,579,
scooby_state_418e91|40|1 578,0,0,0,0,0,0,0,0,1,0,0,0,0,0,579,
scooby_state_418dd0|15|1 575,0,0,0,1,1,0,0,1,0,0,1,0,0,0,579,
scooby_state_418e00|28|1 577,1,0,0,0,0,0,0,1,0,0,0,0,0,0,579,
scooby_state_418f47|2|1 579,0,0,0,0,0,0,0,0,0,0,0,0,0,0,579,
scooby_state_418df1|12|1 577,0,0,0,0,0,1,0,0,1,0,0,0,0,0,579,
scooby_state_418f47|20|1 578,0,0,0,0,0,0,0,0,0,1,0,0,0,0,579,
scooby_state_418f47|29|1 578,0,0,0,0,0,0,0,0,0,1,0,0,0,0,579,
scooby_state_418dd0|6|1 578,0,1,0,0,0,0,0,0,0,0,0,0,0,0,579,
scooby_state_418dd9|63|1 579,0,0,0,0,0,0,0,0,0,0,0,0,0,0,579,
scooby_state_418dd9|17|1 578,0,0,0,0,0,0,0,0,0,0,0,1,0,0,579,
scooby_state_418e91|19|1 577,0,0,0,0,0,0,1,0,1,0,0,0,0,0,579,
scooby_state_418e00|31|1 577,0,0,0,0,0,1,0,0,0,0,0,0,0,1,579,
scooby_state_418df1|30|1 578,0,0,0,0,0,0,0,0,0,0,0,0,1,0,579,
scooby_state_418e00|40|1 579,0,0,0,0,0,0,0,0,0,0,0,0,0,0,579,
scooby_state_418dd0|39|1 578,0,1,0,0,0,0,0,0,0,0,0,0,0,0,579,
scooby_state_418dd9|38|1 578,0,0,0,0,0,0,0,0,0,0,0,1,0,0,579,
scooby_state_418f47|38|1 578,0,0,0,0,0,0,0,0,0,0,0,0,1,0,579,
scooby_state_418dd9|11|1 579,0,0,0,0,0,0,0,0,0,0,0,0,0,0,579,
scooby_state_418dd0|36|1 577,0,0,0,0,1,0,0,0,0,0,1,0,0,0,579,
scooby_state_418f47|35|1 579,0,0,0,0,0,0,0,0,0,0,0,0,0,0,579,
scooby_state_418e00|34|1 578,0,0,0,0,0,0,0,0,0,0,0,0,0,1,579,
scooby_state_418f47|32|1 578,0,0,0,1,0,0,0,0,0,0,0,0,0,0,579,
scooby_state_418e91|31|1 578,0,0,0,0,0,0,0,0,0,0,1,0,0,0,579,
scooby_state_418dd0|3|1 579,0,0,0,0,0,0,0,0,0,0,0,0,0,0,579,
scooby_state_418dd9|29|1 578,0,0,0,0,0,0,0,0,0,0,0,1,0,0,579,
scooby_state_418f47|26|1 578,0,1,0,0,0,0,0,0,0,0,0,0,0,0,579,
scooby_state_418dd0|24|1 576,0,0,0,0,0,2,0,0,0,1,0,0,0,0,579,
scooby_state_418dd9|23|1 578,0,0,0,0,0,0,1,0,0,0,0,0,0,0,579,
scooby_state_418e91|22|1 578,0,0,0,0,0,0,0,0,1,0,0,0,0,0,579,
scooby_state_418e00|22|1 577,0,0,1,0,0,0,0,0,1,0,0,0,0,0,579,
scooby_state_418df1|21|1 579,0,0,0,0,0,0,0,0,0,0,0,0,0,0,579,
scooby_state_418dd0|33|1 578,0,0,0,0,0,0,0,0,1,0,0,0,0,0,579,
scooby_state_418dd0|18|1 579,0,0,0,0,0,0,0,0,0,0,0,0,0,0,579,
scooby_state_418e91|16|1 577,0,0,0,0,1,0,0,0,1,0,0,0,0,0,579,
scooby_state_418df1|39|1 578,1,0,0,0,0,0,0,0,0,0,0,0,0,0,579,
scooby_state_418e00|37|1 577,0,0,0,0,0,0,0,0,0,0,2,0,0,0,579,
scooby_state_418dd9|35|1 576,0,0,0,0,1,0,1,1,0,0,0,0,0,0,579,
scooby_state_418dd0|12|1 579,0,0,0,0,0,0,0,0,0,0,0,0,0,0,579,
scooby_state_418dd9|26|1 579,0,0,0,0,0,0,0,0,0,0,0,0,0,0,579,
scooby_state_418df1|3|1 579,0,0,0,0,0,0,0,0,0,0,0,0,0,0,579,
scooby_state_418df1|18|1 576,0,0,1,0,0,1,0,0,0,0,0,1,0,0,579,
scooby_state_418dd0|9|1 579,0,0,0,0,0,0,0,0,0,0,0,0,0,0,579,
scooby_state_418e91|13|1 578,0,0,0,0,0,0,0,0,0,0,0,0,1,0,579,
scooby_state_418dd9|5|1 579,0,0,0,0,0,0,0,0,0,0,0,0,0,0,579,
scooby_state_418dd0|21|1 577,0,0,0,0,0,0,1,1,0,0,0,0,0,0,579,
scooby_state_418dd9|14|1 578,0,0,0,0,0,0,0,0,0,0,1,0,0,0,579,
scooby_state_418f47|23|1 578,0,0,0,0,0,0,1,0,0,0,0,0,0,0,579,
scooby_state_418df1|36|1 579,0,0,0,0,0,0,0,0,0,0,0,0,0,0,579,
scooby_state_418e91|28|1 578,0,1,0,0,0,0,0,0,0,0,0,0,0,0,579,
scooby_state_418e91|37|1 578,0,0,0,0,0,0,0,1,0,0,0,0,0,0,579,
scooby_state_418e91|34|1 578,0,0,0,0,1,0,0,0,0,0,0,0,0,0,579,
scooby_state_418e00|19|1 578,0,0,0,0,0,0,0,0,1,0,0,0,0,0,579,
scooby_state_418e00|7|1 577,0,2,0,0,0,0,0,0,0,0,0,0,0,0,579,
scooby_state_418dd0|30|1 578,0,0,0,1,0,0,0,0,0,0,0,0,0,0,579,
scooby_state_418dd9|32|1 576,1,0,0,0,0,0,1,0,0,0,1,0,0,0,579,
scooby_state_418e91|7|1 579,0,0,0,0,0,0,0,0,0,0,0,0,0,0,579,
scooby_state_418dd0|0|0 577,0,0,0,0,0,0,0,0,0,0,0,0,2,0,579,
scooby_state_418dd0|27|1 579,0,0,0,0,0,0,0,0,0,0,0,0,0,0,579,
scooby_state_418f47|63|1 579,0,0,0,0,0,0,0,0,0,0,0,0,0,0,579,
scooby_state_418e00|13|1 578,0,0,0,0,0,0,0,0,0,0,1,0,0,0,579,
scooby_state_4186fc|23|1 578,0,0,0,0,0,0,0,0,0,0,0,0,0,0,578,
scooby_state_418727|28|1 576,0,0,0,0,0,1,0,0,0,0,0,0,0,0,577,
scooby_state_418727|62|1 575,0,0,0,0,0,0,0,0,0,0,0,0,0,0,575,
scooby_state_418727|35|1 566,0,0,0,0,1,1,0,0,1,0,0,1,0,0,570,
scooby_state_418727|0|0 563,0,0,0,1,0,0,0,0,0,0,0,0,0,1,565,
scooby_state_418727|34|1 562,0,0,0,0,0,0,0,0,0,0,0,0,0,0,562,
scooby_state_41872c|54|1 557,0,0,0,0,0,0,0,0,0,0,0,1,0,0,558,
scooby_state_418727|37|1 552,0,0,0,0,0,0,0,0,0,1,0,0,0,1,554,
scooby_state_418727|22|1 553,0,0,0,0,0,0,0,0,0,0,0,0,0,0,553,
scooby_state_418727|20|1 545,0,0,1,0,0,0,0,0,0,0,0,0,0,0,546,
scooby_state_418727|30|1 543,0,0,0,0,0,0,0,0,0,0,0,0,0,0,543,
scooby_state_4186fc|5|1 539,0,0,0,0,0,0,0,0,0,0,0,0,0,0,539,
scooby_state_41872c|43|1 535,0,0,1,0,0,0,0,0,0,0,0,0,0,0,536,
scooby_state_418727|38|1 535,0,0,0,0,0,0,0,0,0,0,0,0,0,0,535,
scooby_state_41872c|32|1 526,0,0,0,0,0,0,0,0,0,0,0,0,0,0,526,
scooby_state_4186d8|6|1 525,0,0,0,0,0,0,0,0,0,0,0,0,0,0,525,
scooby_state_4186fc|17|1 515,0,0,0,0,0,0,1,0,0,1,0,0,0,0,517,
scooby_state_4186d8|11|1 517,0,0,0,0,0,0,0,0,0,0,0,0,0,0,517,
scooby_state_41802b|4|2 0,0,0,0,0,0,0,0,0,0,499,0,0,0,0,499,
scooby_state_417f4a|3|-1 499,0,0,0,0,0,0,0,0,0,0,0,0,0,0,499,
scooby_state_417f7a|3|1 498,0,0,0,0,0,0,1,0,0,0,0,0,0,0,499,
scooby_state_418727|36|1 499,0,0,0,0,0,0,0,0,0,0,0,0,0,0,499,
scooby_state_417e70|34|31 498,0,0,0,0,0,1,0,0,0,0,0,0,0,0,499,
scooby_state_41872c|47|1 481,0,1,0,0,0,0,1,0,0,0,0,0,0,0,483,
scooby_state_41872c|19|1 477,0,0,0,0,0,0,0,1,1,0,1,0,0,0,480,
scooby_state_41872c|26|1 479,0,0,0,0,0,0,0,0,0,0,0,0,0,0,479,
scooby_state_418727|45|1 473,0,0,0,0,0,1,0,2,0,0,0,0,0,0,476,
scooby_state_418727|55|1 470,0,0,0,0,0,0,0,0,0,0,0,0,1,0,471,
scooby_state_418727|58|1 455,0,0,0,0,0,0,0,0,1,0,0,0,0,0,456,
scooby_state_418727|56|1 454,0,0,0,0,0,0,1,0,0,0,0,0,0,0,455,
scooby_state_418727|61|1 451,0,0,0,0,0,0,0,0,0,0,0,0,0,0,451,
scooby_state_418727|40|1 438,0,0,0,0,0,0,1,0,0,0,0,0,0,1,440,
scooby_state_418727|49|1 416,0,0,0,0,0,0,0,0,0,0,0,0,0,0,416,
scooby_state_418727|53|1 411,0,0,0,0,0,0,0,0,0,0,0,0,0,0,411,
scooby_state_418727|59|1 403,0,0,0,0,0,0,0,1,0,0,0,0,0,0,404,
scooby_state_418727|44|1 390,0,0,0,0,0,0,0,0,0,0,0,0,0,0,390,
scooby_state_4186fc|20|1 385,0,0,0,0,0,1,0,0,0,0,0,0,0,0,386,
scooby_state_418727|50|1 374,1,0,0,0,0,0,0,0,0,0,0,0,0,0,375,
scooby_state_41872c|7|1 348,0,0,0,0,0,0,0,0,0,0,0,0,0,0,348,
scooby_state_418727|33|1 341,0,1,0,0,0,0,0,1,0,0,0,0,1,0,344,
scooby_state_418727|51|1 343,0,0,0,0,0,0,0,1,0,0,0,0,0,0,344,
scooby_state_418727|60|1 322,0,0,0,0,0,1,0,0,0,0,0,0,0,0,323,
scooby_state_41872c|20|1 320,0,0,0,0,0,0,0,0,0,0,0,0,0,0,320,
scooby_state_418727|42|1 310,0,0,0,0,0,0,0,0,0,0,0,0,0,0,310,
scooby_state_418727|29|1 304,0,0,0,0,0,0,0,0,0,0,0,0,0,0,304,
scooby_state_418727|7|1 279,0,1,0,0,0,0,0,0,0,0,0,0,0,0,280,
scooby_state_417e79|33|1 0,0,1,0,0,0,277,0,0,0,0,0,0,0,0,278,
scooby_state_417e79|46|1 0,0,0,0,0,0,278,0,0,0,0,0,0,0,0,278,
scooby_state_417e79|16|1 0,0,0,0,0,0,277,0,1,0,0,0,0,0,0,278,
scooby_state_417e79|0|0 2,1,0,0,0,0,275,0,0,0,0,0,0,0,0,278,
scooby_state_417e79|15|1 0,0,0,0,0,0,278,0,0,0,0,0,0,0,0,278,
scooby_state_417e79|62|1 0,0,0,0,0,0,278,0,0,0,0,0,0,0,0,278,
scooby_state_417e79|31|1 0,0,0,0,0,0,277,0,0,0,0,0,0,0,1,278,
scooby_state_417e79|1|1 0,0,0,0,0,0,278,0,0,0,0,0,0,0,0,278,
scooby_state_417e79|32|1 0,0,0,0,0,0,277,0,0,0,0,0,0,0,1,278,
scooby_state_417e79|47|1 0,0,1,0,0,0,277,0,0,0,0,0,0,0,0,278,
scooby_state_417e79|14|1 0,0,0,0,0,0,278,0,0,0,0,0,0,0,0,278,
scooby_state_417e79|30|1 0,0,0,0,0,1,277,0,0,0,0,0,0,0,0,278,
scooby_state_417e79|63|1 0,0,0,1,0,0,277,0,0,0,0,0,0,0,0,278,
scooby_state_417e79|49|1 0,0,1,0,0,0,277,0,0,0,0,0,0,0,0,278,
scooby_state_417e79|48|1 0,0,0,0,0,0,278,0,0,0,0,0,0,0,0,278,
scooby_state_417e79|17|1 0,0,0,0,1,0,276,0,0,0,0,0,0,0,0,277,
scooby_state_417e79|2|1 0,0,0,0,0,0,275,0,0,0,0,0,0,1,0,276,
scooby_state_417e79|34|1 0,0,0,0,0,0,276,0,0,0,0,0,0,0,0,276,
scooby_state_417e79|12|1 0,0,0,0,1,0,275,0,0,0,0,0,0,0,0,276,
scooby_state_417e79|51|1 0,0,0,0,0,0,276,0,0,0,0,0,0,0,0,276,
scooby_state_417e79|61|1 0,0,0,0,0,0,276,0,0,0,0,0,0,0,0,276,
scooby_state_417e79|19|1 0,0,0,0,0,0,276,0,0,0,0,0,0,0,0,276,
scooby_state_417e79|13|1 0,0,0,0,0,1,275,0,0,0,0,0,0,0,0,276,
scooby_state_417e79|18|1 0,0,0,0,0,0,275,0,1,0,0,0,0,0,0,276,
scooby_state_417e79|3|1 0,0,0,0,0,0,276,0,0,0,0,0,0,0,0,276,
scooby_state_417e79|50|1 0,0,0,0,0,0,276,0,0,0,0,0,0,0,0,276,
scooby_state_417e79|28|1 0,1,0,0,0,0,275,0,0,0,0,0,0,0,0,276,
scooby_state_417e79|60|1 0,0,1,0,0,0,275,0,0,0,0,0,0,0,0,276,
scooby_state_417e79|44|1 0,0,1,0,0,0,275,0,0,0,0,0,0,0,0,276,
scooby_state_417e79|35|1 0,0,0,0,0,0,276,0,0,0,0,0,0,0,0,276,
scooby_state_417e79|45|1 0,0,0,0,0,0,275,1,0,0,0,0,0,0,0,276,
scooby_state_417e79|29|1 0,0,0,0,0,0,275,0,0,0,0,0,0,0,0,275,
scooby_state_417e79|21|1 0,0,0,0,0,0,274,0,0,0,0,0,0,0,0,274,
scooby_state_417e79|37|1 0,0,0,0,0,0,274,0,0,0,0,0,0,0,0,274,
scooby_state_417e79|43|1 0,0,0,0,0,0,274,0,0,0,0,0,0,0,0,274,
scooby_state_417e79|5|1 0,0,0,0,0,0,273,0,0,0,1,0,0,0,0,274,
scooby_state_417e79|4|1 0,0,0,0,0,0,274,0,0,0,0,0,0,0,0,274,
scooby_state_417e79|58|1 0,0,0,0,0,0,274,0,0,0,0,0,0,0,0,274,
scooby_state_417e79|27|1 0,0,0,0,0,0,274,0,0,0,0,0,0,0,0,274,
scooby_state_417e79|42|1 0,0,0,0,0,0,273,0,1,0,0,0,0,0,0,274,
scooby_state_417e79|52|1 0,0,0,0,0,0,273,0,0,0,1,0,0,0,0,274,
scooby_state_417e79|36|1 0,0,0,0,0,0,274,0,0,0,0,0,0,0,0,274,
scooby_state_417e79|10|1 0,0,1,0,0,0,273,0,0,0,0,0,0,0,0,274,
scooby_state_417e79|53|1 0,0,0,0,0,0,274,0,0,0,0,0,0,0,0,274,
scooby_state_417e79|59|1 0,0,0,0,0,0,274,0,0,0,0,0,0,0,0,274,
scooby_state_417e79|11|1 0,0,0,0,0,0,274,0,0,0,0,0,0,0,0,274,
scooby_state_417e79|20|1 0,0,0,0,0,0,273,0,0,0,0,0,0,0,0,273,
scooby_state_417e79|26|1 0,0,0,0,0,0,271,0,0,1,0,0,0,0,1,273,
scooby_state_417e79|9|1 0,0,0,0,0,0,272,0,0,0,0,0,0,0,0,272,
scooby_state_417e79|38|1 0,0,0,0,0,0,270,1,0,0,1,0,0,0,0,272,
scooby_state_417e79|40|1 0,1,0,0,0,0,271,0,0,0,0,0,0,0,0,272,
scooby_state_417e79|41|1 0,0,0,0,0,0,271,0,0,0,0,0,0,1,0,272,
scooby_state_417e79|25|1 0,0,0,0,0,0,272,0,0,0,0,0,0,0,0,272,
scooby_state_417e79|39|1 0,0,0,0,0,0,272,0,0,0,0,0,0,0,0,272,
scooby_state_417e79|56|1 0,0,0,0,0,0,272,0,0,0,0,0,0,0,0,272,
scooby_state_417e79|7|1 0,1,0,0,0,0,271,0,0,0,0,0,0,0,0,272,
scooby_state_417e79|22|1 0,0,0,0,0,0,272,0,0,0,0,0,0,0,0,272,
scooby_state_417e79|57|1 0,0,0,0,0,0,272,0,0,0,0,0,0,0,0,272,
scooby_state_417e79|55|1 0,0,0,0,0,0,272,0,0,0,0,0,0,0,0,272,
scooby_state_417e79|54|1 0,0,0,0,0,0,272,0,0,0,0,0,0,0,0,272,
scooby_state_417e79|8|1 0,0,0,0,0,0,272,0,0,0,0,0,0,0,0,272,
scooby_state_417e79|6|1 0,0,0,0,0,0,272,0,0,0,0,0,0,0,0,272,
scooby_state_417e79|24|1 0,0,0,0,0,0,271,0,0,0,0,0,0,0,0,271,
scooby_state_417e79|23|1 0,0,0,0,0,0,271,0,0,0,0,0,0,0,0,271,
scooby_state_41872c|50|1 260,0,0,0,0,0,0,0,0,0,0,0,0,0,0,260,
scooby_state_417ee8|51|1 0,0,0,0,0,0,0,0,0,0,250,0,0,0,0,250,
scooby_state_417ee8|3|1 0,0,0,0,0,0,0,0,0,0,250,0,0,0,0,250,
scooby_state_417ee8|33|1 0,0,0,0,0,0,0,0,0,0,250,0,0,0,0,250,
scooby_state_417ee8|38|1 0,0,0,0,0,0,0,0,0,0,250,0,0,0,0,250,
scooby_state_417ee8|43|1 0,0,0,0,0,0,0,0,0,0,250,0,0,0,0,250,
scooby_state_417ee8|13|1 0,0,0,0,0,0,0,0,0,0,250,0,0,0,0,250,
scooby_state_417ee8|55|1 0,0,0,0,0,0,0,0,0,0,250,0,0,0,0,250,
scooby_state_417ee8|35|1 0,0,0,0,0,0,0,0,0,0,249,0,0,1,0,250,
scooby_state_417ee8|58|1 0,0,0,0,0,0,0,0,0,0,249,0,1,0,0,250,
scooby_state_417ee8|52|1 0,0,0,0,0,0,0,0,0,0,250,0,0,0,0,250,
scooby_state_417ee8|46|1 0,0,0,0,0,0,0,0,0,0,250,0,0,0,0,250,
scooby_state_417ee8|49|1 0,0,0,0,1,0,0,0,0,0,249,0,0,0,0,250,
scooby_state_417ee8|6|1 0,0,0,1,0,0,0,0,0,0,249,0,0,0,0,250,
scooby_state_417ee8|24|1 0,0,0,0,0,0,0,0,0,0,250,0,0,0,0,250,
scooby_state_417ee8|17|1 0,0,0,0,0,0,0,0,0,0,250,0,0,0,0,250,
scooby_state_417ee8|42|1 0,0,0,0,0,0,0,0,0,0,250,0,0,0,0,250,
scooby_state_417ee8|7|1 0,0,0,0,0,0,0,0,0,0,250,0,0,0,0,250,
scooby_state_417ee8|40|1 0,0,0,0,0,0,0,0,0,0,250,0,0,0,0,250,
scooby_state_417ee8|10|1 1,0,0,0,0,0,0,0,0,0,248,0,0,1,0,250,
scooby_state_417ee8|61|1 0,0,0,0,0,0,0,0,0,0,249,1,0,0,0,250,
scooby_state_417ee8|62|1 0,0,1,0,0,0,0,0,0,0,249,0,0,0,0,250,
scooby_state_417ee8|56|1 0,0,0,0,0,0,0,0,1,0,249,0,0,0,0,250,
scooby_state_417ee8|53|1 0,0,0,0,0,0,0,0,0,0,250,0,0,0,0,250,
scooby_state_417ee8|21|1 0,0,0,0,0,0,0,0,0,0,249,0,1,0,0,250,
scooby_state_417ee8|59|1 0,0,0,0,0,0,0,0,0,0,250,0,0,0,0,250,
scooby_state_417ee8|18|1 0,0,0,0,0,0,0,0,0,0,250,0,0,0,0,250,
scooby_state_417ee8|32|1 0,0,0,0,0,0,0,0,0,0,250,0,0,0,0,250,
scooby_state_417fd3|3|1 250,0,0,0,0,0,0,0,0,0,0,0,0,0,0,250,
scooby_state_417ee8|48|1 0,0,0,0,0,0,0,0,0,0,250,0,0,0,0,250,
scooby_state_417ee8|47|1 0,0,0,1,0,0,0,0,0,0,249,0,0,0,0,250,
scooby_state_417ee8|57|1 0,0,0,0,0,0,0,0,0,0,250,0,0,0,0,250,
scooby_state_417ee8|20|1 0,0,0,0,0,0,0,0,0,0,250,0,0,0,0,250,
scooby_state_417ee8|15|1 0,0,0,1,1,0,0,0,0,0,248,0,0,0,0,250,
scooby_state_417ee8|44|1 0,0,0,0,0,0,0,0,0,0,250,0,0,0,0,250,
scooby_state_417ee8|1|1 0,0,0,0,0,0,0,0,0,0,250,0,0,0,0,250,
scooby_state_417ee8|41|1 0,0,0,0,0,0,0,0,0,0,250,0,0,0,0,250,
scooby_state_417ee8|30|1 0,0,0,0,0,0,0,0,0,1,248,0,0,0,1,250,
scooby_state_417ee8|11|1 0,0,0,0,0,0,0,0,0,0,250,0,0,0,0,250,
scooby_state_417ee8|34|1 0,0,0,0,0,0,0,0,0,0,250,0,0,0,0,250,
scooby_state_417ee8|37|1 0,0,0,0,0,1,0,0,0,0,249,0,0,0,0,250,
scooby_state_417ee8|26|1 0,1,0,0,0,0,0,0,0,0,249,0,0,0,0,250,
scooby_state_417ee8|29|1 0,0,0,1,0,0,0,0,0,0,249,0,0,0,0,250,
scooby_state_417ee8|54|1 0,0,0,0,0,0,0,0,0,1,249,0,0,0,0,250,
scooby_state_417ee8|45|1 0,0,0,0,0,0,0,0,0,0,250,0,0,0,0,250,
scooby_state_417ee8|63|1 0,0,0,0,0,0,0,0,0,0,250,0,0,0,0,250,
scooby_state_417ee8|27|1 0,0,0,0,0,0,0,0,0,0,250,0,0,0,0,250,
scooby_state_417ee8|2|1 0,0,0,0,0,0,0,0,0,0,250,0,0,0,0,250,
scooby_state_417ee8|60|1 0,0,0,0,0,0,0,0,0,0,250,0,0,0,0,250,
scooby_state_417ee8|36|1 0,0,0,0,0,0,0,0,0,0,250,0,0,0,0,250,
scooby_state_417ee8|4|1 0,0,0,0,0,0,0,0,0,0,250,0,0,0,0,250,
scooby_state_417ee8|5|1 0,0,0,0,0,0,0,0,0,0,250,0,0,0,0,250,
scooby_state_417ee8|12|1 0,0,0,0,0,0,0,0,0,0,250,0,0,0,0,250,
scooby_state_417ee8|14|1 0,0,0,0,0,0,0,0,0,1,249,0,0,0,0,250,
scooby_state_417ee8|23|1 1,0,0,1,0,0,0,0,0,0,248,0,0,0,0,250,
scooby_state_417ee8|39|1 0,0,0,0,0,0,0,0,0,0,250,0,0,0,0,250,
scooby_state_417ee8|8|1 0,0,0,0,0,0,0,0,0,0,250,0,0,0,0,250,
scooby_state_417ee8|9|1 0,0,0,0,0,0,0,0,0,0,250,0,0,0,0,250,
scooby_state_417ee8|0|0 6,0,0,0,0,0,0,0,0,0,244,0,0,0,0,250,
scooby_state_417ee8|50|1 0,0,0,0,0,0,0,0,0,0,250,0,0,0,0,250,
scooby_state_417ee8|31|1 0,0,0,0,0,0,0,0,0,0,249,0,0,0,0,249,
scooby_state_417ee8|25|1 0,0,0,0,0,0,0,0,0,0,249,0,0,0,0,249,
scooby_state_417ee8|22|1 0,0,0,0,0,0,0,0,0,0,249,0,0,0,0,249,
scooby_state_417ee8|19|1 0,0,0,0,0,0,0,0,0,0,249,0,0,0,0,249,
scooby_state_417fba|3|1 249,0,0,0,0,0,0,0,0,0,0,0,0,0,0,249,
scooby_state_417ee8|16|1 0,0,0,1,0,0,0,0,0,0,248,0,0,0,0,249,
scooby_state_417ee8|28|1 0,0,0,0,0,0,0,0,0,0,249,0,0,0,0,249,
scooby_state_417e9f|25|1 228,0,0,0,0,0,0,0,0,0,0,0,0,0,0,228,
scooby_state_417e9f|39|1 227,0,0,0,0,0,0,1,0,0,0,0,0,0,0,228,
scooby_state_417e9f|57|1 228,0,0,0,0,0,0,0,0,0,0,0,0,0,0,228,
scooby_state_417e9f|8|1 226,0,0,0,1,0,0,0,0,0,0,0,0,1,0,228,
scooby_state_417e9f|6|1 228,0,0,0,0,0,0,0,0,0,0,0,0,0,0,228,
scooby_state_417e9f|55|1 228,0,0,0,0,0,0,0,0,0,0,0,0,0,0,228,
scooby_state_417e9f|7|1 227,0,0,0,1,0,0,0,0,0,0,0,0,0,0,228,
scooby_state_417e9f|22|1 228,0,0,0,0,0,0,0,0,0,0,0,0,0,0,228,
scooby_state_417e9f|54|1 228,0,0,0,0,0,0,0,0,0,0,0,0,0,0,228,
scooby_state_417e9f|38|1 228,0,0,0,0,0,0,0,0,0,0,0,0,0,0,228,
[...]
scooby_state_41dccb|40|1 155,0,0,0,0,0,0,0,0,0,0,0,0,1,0,156,
scooby_state_41dccb|43|1 156,0,0,0,0,0,0,0,0,0,0,0,0,0,0,156,
scooby_state_41dccb|46|1 156,0,0,0,0,0,0,0,0,0,0,0,0,0,0,156,
scooby_state_41dccb|23|1 154,0,0,1,0,0,0,0,0,1,0,0,0,0,0,156,
scooby_state_41dccb|50|1 156,0,0,0,0,0,0,0,0,0,0,0,0,0,0,156,
scooby_state_41dccb|51|1 156,0,0,0,0,0,0,0,0,0,0,0,0,0,0,156,
scooby_state_41dccb|44|1 156,0,0,0,0,0,0,0,0,0,0,0,0,0,0,156,
scooby_state_41dccb|52|1 156,0,0,0,0,0,0,0,0,0,0,0,0,0,0,156,
scooby_state_41dccb|53|1 156,0,0,0,0,0,0,0,0,0,0,0,0,0,0,156,
scooby_state_41dccb|55|1 155,0,0,0,0,1,0,0,0,0,0,0,0,0,0,156,
scooby_state_41dccb|56|1 156,0,0,0,0,0,0,0,0,0,0,0,0,0,0,156,
scooby_state_41dccb|45|1 156,0,0,0,0,0,0,0,0,0,0,0,0,0,0,156,
scooby_state_41dccb|60|1 156,0,0,0,0,0,0,0,0,0,0,0,0,0,0,156,
scooby_state_41dccb|35|1 155,0,0,0,0,1,0,0,0,0,0,0,0,0,0,156,
scooby_state_41dccb|33|1 155,0,0,0,0,0,0,0,1,0,0,0,0,0,0,156,
scooby_state_41dccb|62|1 156,0,0,0,0,0,0,0,0,0,0,0,0,0,0,156,
scooby_state_41dccb|22|1 156,0,0,0,0,0,0,0,0,0,0,0,0,0,0,156,
scooby_state_41dccb|61|1 156,0,0,0,0,0,0,0,0,0,0,0,0,0,0,156,
scooby_state_41dccb|36|1 156,0,0,0,0,0,0,0,0,0,0,0,0,0,0,156,
scooby_state_41dccb|47|1 156,0,0,0,0,0,0,0,0,0,0,0,0,0,0,156,
scooby_state_41dccb|37|1 156,0,0,0,0,0,0,0,0,0,0,0,0,0,0,156,
scooby_state_41dccb|26|1 156,0,0,0,0,0,0,0,0,0,0,0,0,0,0,156,
scooby_state_41dccb|30|1 156,0,0,0,0,0,0,0,0,0,0,0,0,0,0,156,
scooby_state_41dccb|49|1 156,0,0,0,0,0,0,0,0,0,0,0,0,0,0,156,
scooby_state_41dccb|25|1 156,0,0,0,0,0,0,0,0,0,0,0,0,0,0,156,
scooby_state_41dccb|58|1 155,0,0,0,0,0,0,0,0,0,0,0,0,1,0,156,
scooby_state_41dccb|29|1 156,0,0,0,0,0,0,0,0,0,0,0,0,0,0,156,
scooby_state_41dccb|54|1 156,0,0,0,0,0,0,0,0,0,0,0,0,0,0,156,
scooby_state_41872c|49|1 152,0,0,0,0,0,0,0,0,0,0,0,0,0,0,152,
scooby_state_4186fc|19|1 145,0,0,0,0,0,0,0,0,0,0,0,0,0,0,145,
scooby_state_41872c|53|1 143,0,0,0,0,0,0,0,0,0,0,0,0,0,0,143,
scooby_state_413948|10|1 125,0,0,0,0,0,0,0,0,0,0,0,0,0,0,125,
scooby_state_413948|37|1 125,0,0,0,0,0,0,0,0,0,0,0,0,0,0,125,
scooby_state_413948|31|1 125,0,0,0,0,0,0,0,0,0,0,0,0,0,0,125,
scooby_state_413948|9|1 124,0,0,0,0,0,0,0,0,0,1,0,0,0,0,125,
scooby_state_413948|12|1 125,0,0,0,0,0,0,0,0,0,0,0,0,0,0,125,
scooby_state_413948|47|1 125,0,0,0,0,0,0,0,0,0,0,0,0,0,0,125,
scooby_state_413948|14|1 124,0,0,0,0,0,1,0,0,0,0,0,0,0,0,125,
scooby_state_413948|40|1 125,0,0,0,0,0,0,0,0,0,0,0,0,0,0,125,
scooby_state_413948|38|1 125,0,0,0,0,0,0,0,0,0,0,0,0,0,0,125,
scooby_state_413948|20|1 125,0,0,0,0,0,0,0,0,0,0,0,0,0,0,125,
scooby_state_413948|21|1 125,0,0,0,0,0,0,0,0,0,0,0,0,0,0,125,
scooby_state_413948|36|1 125,0,0,0,0,0,0,0,0,0,0,0,0,0,0,125,
scooby_state_413948|33|1 125,0,0,0,0,0,0,0,0,0,0,0,0,0,0,125,
scooby_state_413948|59|1 125,0,0,0,0,0,0,0,0,0,0,0,0,0,0,125,
scooby_state_413948|27|1 125,0,0,0,0,0,0,0,0,0,0,0,0,0,0,125,
scooby_state_413948|0|0 125,0,0,0,0,0,0,0,0,0,0,0,0,0,0,125,
scooby_state_413948|30|1 125,0,0,0,0,0,0,0,0,0,0,0,0,0,0,125,
scooby_state_413948|25|1 125,0,0,0,0,0,0,0,0,0,0,0,0,0,0,125,
scooby_state_413948|49|1 125,0,0,0,0,0,0,0,0,0,0,0,0,0,0,125,
scooby_state_413948|39|1 125,0,0,0,0,0,0,0,0,0,0,0,0,0,0,125,
scooby_state_413948|16|1 124,0,0,0,0,0,0,1,0,0,0,0,0,0,0,125,
scooby_state_413948|32|1 125,0,0,0,0,0,0,0,0,0,0,0,0,0,0,125,
scooby_state_413948|7|1 125,0,0,0,0,0,0,0,0,0,0,0,0,0,0,125,
scooby_state_413948|15|1 125,0,0,0,0,0,0,0,0,0,0,0,0,0,0,125,
scooby_state_413948|35|1 125,0,0,0,0,0,0,0,0,0,0,0,0,0,0,125,
scooby_state_413948|43|1 125,0,0,0,0,0,0,0,0,0,0,0,0,0,0,125,
scooby_state_413948|29|1 125,0,0,0,0,0,0,0,0,0,0,0,0,0,0,125,
scooby_state_413948|4|1 124,0,1,0,0,0,0,0,0,0,0,0,0,0,0,125,
scooby_state_413948|17|1 125,0,0,0,0,0,0,0,0,0,0,0,0,0,0,125,
scooby_state_413948|11|1 125,0,0,0,0,0,0,0,0,0,0,0,0,0,0,125,
scooby_state_413948|8|1 124,0,1,0,0,0,0,0,0,0,0,0,0,0,0,125,
scooby_state_413948|57|1 124,0,0,0,0,0,0,0,0,0,0,0,0,0,1,125,
scooby_state_413948|18|1 125,0,0,0,0,0,0,0,0,0,0,0,0,0,0,125,
scooby_state_413948|58|1 125,0,0,0,0,0,0,0,0,0,0,0,0,0,0,125,
scooby_state_413948|19|1 125,0,0,0,0,0,0,0,0,0,0,0,0,0,0,125,
scooby_state_413948|60|1 125,0,0,0,0,0,0,0,0,0,0,0,0,0,0,125,
scooby_state_413948|55|1 125,0,0,0,0,0,0,0,0,0,0,0,0,0,0,125,
scooby_state_413948|2|1 125,0,0,0,0,0,0,0,0,0,0,0,0,0,0,125,
scooby_state_413948|13|1 125,0,0,0,0,0,0,0,0,0,0,0,0,0,0,125,
scooby_state_413948|23|1 125,0,0,0,0,0,0,0,0,0,0,0,0,0,0,125,
scooby_state_413948|56|1 125,0,0,0,0,0,0,0,0,0,0,0,0,0,0,125,
scooby_state_413948|3|1 125,0,0,0,0,0,0,0,0,0,0,0,0,0,0,125,
scooby_state_413948|34|1 124,0,0,0,0,0,0,0,0,0,0,0,1,0,0,125,
scooby_state_413948|61|1 124,0,0,0,0,1,0,0,0,0,0,0,0,0,0,125,
scooby_state_413948|22|1 125,0,0,0,0,0,0,0,0,0,0,0,0,0,0,125,
scooby_state_413948|5|1 125,0,0,0,0,0,0,0,0,0,0,0,0,0,0,125,
scooby_state_413948|42|1 123,0,0,0,0,0,1,0,0,0,0,0,0,1,0,125,
scooby_state_413948|44|1 124,0,0,0,0,0,0,0,0,0,0,0,0,0,1,125,
scooby_state_413948|28|1 124,0,0,0,0,0,0,0,0,0,0,0,0,1,0,125,
scooby_state_413948|1|1 125,0,0,0,0,0,0,0,0,0,0,0,0,0,0,125,
scooby_state_413948|45|1 124,0,0,0,1,0,0,0,0,0,0,0,0,0,0,125,
scooby_state_413948|6|1 125,0,0,0,0,0,0,0,0,0,0,0,0,0,0,125,
scooby_state_413948|46|1 125,0,0,0,0,0,0,0,0,0,0,0,0,0,0,125,
scooby_state_413948|48|1 125,0,0,0,0,0,0,0,0,0,0,0,0,0,0,125,
scooby_state_413948|50|1 125,0,0,0,0,0,0,0,0,0,0,0,0,0,0,125,
scooby_state_413948|51|1 125,0,0,0,0,0,0,0,0,0,0,0,0,0,0,125,
scooby_state_413948|52|1 125,0,0,0,0,0,0,0,0,0,0,0,0,0,0,125,
scooby_state_413948|24|1 125,0,0,0,0,0,0,0,0,0,0,0,0,0,0,125,
scooby_state_413948|53|1 125,0,0,0,0,0,0,0,0,0,0,0,0,0,0,125,
scooby_state_413948|26|1 125,0,0,0,0,0,0,0,0,0,0,0,0,0,0,125,
scooby_state_413948|54|1 125,0,0,0,0,0,0,0,0,0,0,0,0,0,0,125,
scooby_state_413948|41|1 125,0,0,0,0,0,0,0,0,0,0,0,0,0,0,125,
scooby_state_413948|63|1 124,0,0,0,0,0,0,0,0,0,0,0,0,0,0,124,
scooby_state_413948|62|1 124,0,0,0,0,0,0,0,0,0,0,0,0,0,0,124,
scooby_state_41872c|17|1 108,0,0,0,0,0,0,0,0,0,0,0,0,0,0,108,
scooby_state_41872c|42|1 105,0,0,0,0,0,0,0,0,0,0,0,0,0,0,105,
scooby_state_41872c|30|1 96,0,0,0,0,0,0,0,0,0,0,0,0,0,0,96,
scooby_state_4186fc|1|1 93,0,0,0,0,0,0,0,0,0,0,0,0,0,0,93,
scooby_state_41872c|5|1 89,0,0,0,0,0,0,0,0,0,0,0,0,0,0,89,
scooby_state_4186fc|21|1 69,0,0,0,1,1,0,0,0,0,0,0,0,0,0,71,
scooby_state_41872c|0|0 65,0,0,0,0,0,0,0,0,0,0,0,1,0,0,66,
scooby_state_41872c|28|1 57,0,0,0,0,0,0,0,0,0,0,0,0,0,0,57,
scooby_state_41872c|23|1 49,0,0,0,0,0,0,0,0,0,0,0,0,0,0,49,
scooby_state_41872c|56|1 40,0,0,0,0,0,0,0,0,0,0,0,0,0,0,40,
scooby_state_41872c|16|1 40,0,0,0,0,0,0,0,0,0,0,0,0,0,0,40,
scooby_state_41872c|58|1 40,0,0,0,0,0,0,0,0,0,0,0,0,0,0,40,
scooby_state_41872c|36|1 39,0,0,0,0,0,0,0,0,0,0,0,0,0,0,39,
scooby_state_41872c|45|1 36,0,0,0,0,0,0,0,0,0,0,0,0,0,0,36,
scooby_state_41872c|38|1 36,0,0,0,0,0,0,0,0,0,0,0,0,0,0,36,
scooby_state_4186fc|24|1 33,0,0,0,0,0,0,0,0,0,0,0,0,0,0,33,
scooby_state_4186fc|35|1 33,0,0,0,0,0,0,0,0,0,0,0,0,0,0,33,
scooby_state_41872c|34|1 30,0,0,0,0,0,0,0,0,0,0,0,0,0,0,30,
scooby_state_41872c|8|1 27,0,0,0,0,0,0,0,0,0,0,0,0,0,0,27,
scooby_state_41872c|29|1 26,0,0,0,0,0,0,0,0,0,0,0,0,0,0,26,
scooby_state_41872c|51|1 23,0,0,0,0,0,0,0,0,0,0,0,0,0,0,23,
scooby_state_41872c|3|1 22,0,0,0,0,0,0,0,0,0,0,0,0,0,0,22,
scooby_state_41872c|37|1 22,0,0,0,0,0,0,0,0,0,0,0,0,0,0,22,
scooby_state_41872c|62|1 21,0,0,0,0,0,0,0,0,0,0,0,0,0,0,21,
scooby_state_41872c|18|1 18,0,0,0,0,0,0,0,0,0,0,0,0,0,0,18,
scooby_state_41872c|11|1 18,0,0,0,0,0,0,0,0,0,0,0,0,0,0,18,
scooby_state_4186fc|55|1 17,0,0,0,0,0,0,0,0,0,0,0,0,0,0,17,
scooby_state_41872c|25|1 16,0,0,0,0,0,0,0,0,0,0,0,0,0,0,16,
scooby_state_41872c|14|1 13,0,0,0,0,0,0,0,0,0,0,0,0,0,0,13,
scooby_state_41872c|41|1 13,0,0,0,0,0,0,0,0,0,0,0,0,0,0,13,
scooby_state_41872c|27|1 12,0,0,0,0,0,0,0,0,0,0,0,0,0,0,12,
scooby_state_41872c|59|1 11,0,0,0,0,0,0,0,0,0,0,0,0,0,0,11,
scooby_state_41872c|40|1 10,0,0,0,0,0,0,0,0,0,0,0,0,0,0,10,
scooby_state_41872c|60|1 7,0,0,0,0,0,0,0,0,0,0,0,0,0,0,7,
scooby_state_41872c|48|1 7,0,0,0,0,0,0,0,0,0,0,0,0,0,0,7,
scooby_state_41872c|4|1 4,0,0,0,0,0,0,0,0,0,0,0,0,0,0,4,
scooby_state_418727|9|1 3,0,0,0,0,0,0,0,0,0,0,0,0,0,0,3,
scooby_state_41872c|57|1 3,0,0,0,0,0,0,0,0,0,0,0,0,0,0,3,
scooby_state_41872c|33|1 3,0,0,0,0,0,0,0,0,0,0,0,0,0,0,3,
scooby_state_414051|37|1 0,0,0,0,0,0,1,0,0,0,0,0,0,0,0,1,
scooby_state_4186fc|6|1 1,0,0,0,0,0,0,0,0,0,0,0,0,0,0,1,
scooby_state_419483|18|1 1,0,0,0,0,0,0,0,0,0,0,0,0,0,0,1,
scooby_state_418310|12|-51 1,0,0,0,0,0,0,0,0,0,0,0,0,0,0,1,
scooby_state_41403c|36|0 1,0,0,0,0,0,0,0,0,0,0,0,0,0,0,1,
scooby_state_413e40|57|1 1,0,0,0,0,0,0,0,0,0,0,0,0,0,0,1,
scooby_state_418043|1|1 1,0,0,0,0,0,0,0,0,0,0,0,0,0,0,1,
scooby_state_41dcc0|62|0 1,0,0,0,0,0,0,0,0,0,0,0,0,0,0,1,
scooby_state_4184b0|18|0 1,0,0,0,0,0,0,0,0,0,0,0,0,0,0,1,
scooby_state_418141|5|1 1,0,0,0,0,0,0,0,0,0,0,0,0,0,0,1,
scooby_state_418000|0|0 1,0,0,0,0,0,0,0,0,0,0,0,0,0,0,1,
scooby_state_413fe0|37|0 1,0,0,0,0,0,0,0,0,0,0,0,0,0,0,1,
scooby_state_417ec2|59|1 1,0,0,0,0,0,0,0,0,0,0,0,0,0,0,1,
scooby_state_4184b0|41|0 1,0,0,0,0,0,0,0,0,0,0,0,0,0,0,1,
scooby_state_418727|10|1 1,0,0,0,0,0,0,0,0,0,0,0,0,0,0,1,
scooby_state_417e79|31|0 1,0,0,0,0,0,0,0,0,0,0,0,0,0,0,1,
scooby_state_418701|28|1 0,0,0,0,0,0,1,0,0,0,0,0,0,0,0,1,
scooby_state_41dc98|50|2 1,0,0,0,0,0,0,0,0,0,0,0,0,0,0,1,
scooby_state_419400|16|1 1,0,0,0,0,0,0,0,0,0,0,0,0,0,0,1,
scooby_state_418103|4|1 1,0,0,0,0,0,0,0,0,0,0,0,0,0,0,1,
scooby_state_41390d|0|-5 1,0,0,0,0,0,0,0,0,0,0,0,0,0,0,1,
scooby_state_4186d0|27|0 1,0,0,0,0,0,0,0,0,0,0,0,0,0,0,1,
scooby_state_414501|20|0 1,0,0,0,0,0,0,0,0,0,0,0,0,0,0,1,
scooby_state_417f02|60|1 1,0,0,0,0,0,0,0,0,0,0,0,0,0,0,1,
scooby_state_413930|8|8 1,0,0,0,0,0,0,0,0,0,0,0,0,0,0,1,
scooby_state_4185c0|23|1 1,0,0,0,0,0,0,0,0,0,0,0,0,0,0,1,
scooby_state_418611|35|-8 1,0,0,0,0,0,0,0,0,0,0,0,0,0,0,1,
scooby_state_414470|17|-2 1,0,0,0,0,0,0,0,0,0,0,0,0,0,0,1,
scooby_state_41851f|42|1 1,0,0,0,0,0,0,0,0,0,0,0,0,0,0,1,
scooby_state_417f83|62|1 0,0,0,0,0,0,0,0,0,0,1,0,0,0,0,1,
scooby_state_4185b7|43|1 1,0,0,0,0,0,0,0,0,0,0,0,0,0,0,1,
scooby_state_418090|2|-22 1,0,0,0,0,0,0,0,0,0,0,0,0,0,0,1,
scooby_state_417fc3|63|1 0,0,0,0,0,0,1,0,0,0,0,0,0,0,0,1,
scooby_state_417e81|58|1 1,0,0,0,0,0,0,0,0,0,0,0,0,0,0,1,
scooby_state_417e70|57|0 1,0,0,0,0,0,0,0,0,0,0,0,0,0,0,1,
scooby_state_413907|5|0 1,0,0,0,0,0,0,0,0,0,0,0,0,0,0,1,
scooby_state_41dce8|33|0 1,0,0,0,0,0,0,0,0,0,0,0,0,0,0,1,
scooby_state_418dd9|40|0 1,0,0,0,0,0,0,0,0,0,0,0,0,0,0,1,
scooby_state_413902|36|0 1,0,0,0,0,0,0,0,0,0,0,0,0,0,0,1,
scooby_state_418f02|60|1 1,0,0,0,0,0,0,0,0,0,0,0,0,0,0,1,
scooby_state_4180c2|46|0 1,0,0,0,0,0,0,0,0,0,0,0,0,0,0,1,
scooby_state_4144d1|19|0 1,0,0,0,0,0,0,0,0,0,0,0,0,0,0,1,
scooby_state_413fe0|63|0 1,0,0,0,0,0,0,0,0,0,0,0,0,0,0,1,
scooby_state_418583|22|1 1,0,0,0,0,0,0,0,0,0,0,0,0,0,0,1,
scooby_state_4138c0|35|-22 0,0,0,0,0,0,0,0,0,0,1,0,0,0,0,1,
scooby_state_419444|17|1 1,0,0,0,0,0,0,0,0,0,0,0,0,0,0,1,
scooby_state_418dd0|40|0 1,0,0,0,0,0,0,0,0,0,0,0,0,0,0,1,
scooby_state_414042|1|0 1,0,0,0,0,0,0,0,0,0,0,0,0,0,0,1,
scooby_state_418502|44|9 1,0,0,0,0,0,0,0,0,0,0,0,0,0,0,1,
scooby_state_414483|18|1 1,0,0,0,0,0,0,0,0,0,0,0,0,0,0,1,
scooby_state_414470|36|-9 1,0,0,0,0,0,0,0,0,0,0,0,0,0,0,1,
scooby_state_418502|20|1 1,0,0,0,0,0,0,0,0,0,0,0,0,0,0,1,
scooby_state_413941|37|1 1,0,0,0,0,0,0,0,0,0,0,0,0,0,0,1,
scooby_state_41dc10|48|0 1,0,0,0,0,0,0,0,0,0,0,0,0,0,0,1,
scooby_state_4193e0|15|0 1,0,0,0,0,0,0,0,0,0,0,0,0,0,0,1,
scooby_state_413e20|56|0 1,0,0,0,0,0,0,0,0,0,0,0,0,0,0,1,
scooby_state_418540|21|1 1,0,0,0,0,0,0,0,0,0,0,0,0,0,0,1,
scooby_state_4186d8|63|0 1,0,0,0,0,0,0,0,0,0,0,0,0,0,0,1,
scooby_state_4138e3|8|0 1,0,0,0,0,0,0,0,0,0,0,0,0,0,0,1,
scooby_state_418601|24|1 1,0,0,0,0,0,0,0,0,0,0,0,0,0,0,1,
scooby_state_4180c2|3|1 1,0,0,0,0,0,0,0,0,0,0,0,0,0,0,1,
scooby_state_4180ae|58|0 1,0,0,0,0,0,0,0,0,0,0,0,0,0,0,1,
scooby_state_41dd60|53|0 0,0,0,0,0,0,1,0,0,0,0,0,0,0,0,1,
scooby_state_418ec4|59|1 1,0,0,0,0,0,0,0,0,0,0,0,0,0,0,1,
scooby_state_41859a|45|1 1,0,0,0,0,0,0,0,0,0,0,0,0,0,0,1,
scooby_state_419412|54|8 1,0,0,0,0,0,0,0,0,0,0,0,0,0,0,1,
scooby_state_41dcc7|56|0 1,0,0,0,0,0,0,0,0,0,0,0,0,0,0,1,
scooby_state_418f82|62|1 1,0,0,0,0,0,0,0,0,0,0,0,0,0,0,1,
scooby_state_417f42|61|1 1,0,0,0,0,0,0,0,0,0,0,0,0,0,0,1,
scooby_state_418f43|61|1 1,0,0,0,0,0,0,0,0,0,0,0,0,0,0,1,
scooby_state_4184c0|19|1 1,0,0,0,0,0,0,0,0,0,0,0,0,0,0,1,
scooby_state_41dcc0|51|1 1,0,0,0,0,0,0,0,0,0,0,0,0,0,0,1,
scooby_state_414003|0|0 1,0,0,0,0,0,0,0,0,0,0,0,0,0,0,1,
scooby_state_418fc2|63|1 1,0,0,0,0,0,0,0,0,0,0,0,0,0,0,1,
scooby_state_4144e1|5|0 1,0,0,0,0,0,0,0,0,0,0,0,0,0,0,1,
scooby_state_418e84|58|1 1,0,0,0,0,0,0,0,0,0,0,0,0,0,0,1,
scooby_state_41391c|34|1 1,0,0,0,0,0,0,0,0,0,0,0,0,0,0,1,
scooby_state_418e42|57|1 1,0,0,0,0,0,0,0,0,0,0,0,0,0,0,1,
scooby_state_418dd0|55|50 1,0,0,0,0,0,0,0,0,0,0,0,0,0,0,1,

scooby_action_0_deg_dist 0,146,0,0,0,0,0,0,0,0,0,0,0,0,0,0,
scooby_action_-6_deg_dist 0,128,0,0,0,0,0,0,0,0,0,0,0,0,0,0,
scooby_action_4_deg_dist 0,242,55,0,26,0,0,0,0,0,0,0,0,0,0,0,
scooby_action_1_deg_dist 0,128313,48593,0,45142,0,360242,0,0,0,0,0,0,0,0,0,
scooby_action_30_deg_dist 0,209,0,0,0,0,0,0,0,0,0,0,0,0,0,0,
scooby_action_5_deg_dist 0,231,55,0,26,0,0,0,0,0,0,0,0,0,0,0,
scooby_action_10_deg_dist 0,249,55,0,26,0,0,0,0,0,0,0,0,0,0,0,
scooby_action_3_deg_dist 0,246,55,0,26,0,0,0,0,0,0,0,0,0,0,0,
scooby_action_32_deg_dist 0,375243,9,0,0,0,0,0,0,0,0,0,0,0,0,0,
scooby_action_11_deg_dist 0,228,55,0,26,0,0,0,0,0,0,0,0,0,0,0,
scooby_action_12_deg_dist 0,164367,5524,0,14805,0,20846,0,0,0,0,0,0,0,0,0,
scooby_action_22_deg_dist 0,246,0,0,0,0,0,0,0,0,0,0,0,0,0,0,
scooby_action_23_deg_dist 0,203,0,0,0,0,0,0,0,0,0,0,0,0,0,0,
scooby_action_-1_deg_dist 0,141,0,0,0,0,0,0,0,0,0,0,0,0,0,0,
scooby_action_-3_deg_dist 0,140,0,0,0,0,0,0,0,0,0,0,0,0,0,0,

scooby_track_called 1165898
scooby_track_same_address 139356
scooby_track_evict 1026286

scooby_reward_demand_called 1165898
scooby_reward_demand_pt_not_found 348052
scooby_reward_demand_pt_found 817846
scooby_reward_demand_pt_found_total 817846
scooby_reward_demand_has_reward 0
scooby_reward_train_called 2837
scooby_reward_assign_reward_called 1026529
scooby_reward_no_pref 146
scooby_reward_incorrect 2691
scooby_reward_correct_untimely 529322
scooby_reward_correct_timely 288524
scooby_reward_out_of_bounds 205846
scooby_reward_tracker_hit 0

scooby_reward_none_low_bw 146
scooby_reward_none_high_bw 0
scooby_reward_incorrect_low_bw 2691
scooby_reward_incorrect_high_bw 0
scooby_reward_correct_untimely_low_bw 529322
scooby_reward_correct_untimely_high_bw 0
scooby_reward_correct_timely_low_bw 288524
scooby_reward_correct_timely_high_bw 0
scooby_reward_out_of_bounds_low_bw 205846
scooby_reward_out_of_bounds_high_bw 0
scooby_reward_tracker_hit_low_bw 0
scooby_reward_tracker_hit_high_bw 0

scooby_reward_1 0,771,440233,69507,7091,0,
scooby_reward_3 0,252,39,28,3,0,
scooby_reward_4 0,252,28,29,2,0,
scooby_reward_5 0,243,23,30,7,0,
scooby_reward_10 0,263,0,56,5,0,
scooby_reward_11 0,245,0,46,11,0,
scooby_reward_12 0,186,75493,44606,10796,0,
scooby_reward_22 0,119,3,43,80,0,
scooby_reward_23 0,95,3,35,70,0,
scooby_reward_30 0,84,1,44,79,0,
scooby_reward_32 0,1,13499,174100,187647,0,
scooby_reward_-1 0,55,0,0,6,0,
scooby_reward_-3 0,73,0,0,14,0,
scooby_reward_-6 0,52,0,0,35,0,
scooby_reward_0 146,0,0,0,0,0,

scooby_train_called 1026285
scooby_train_compute_reward 2837

scooby_register_fill_called 659770
scooby_register_fill_set 290627
scooby_register_fill_set_total 290627

scooby_register_prefetch_hit_called 1329078
scooby_register_prefetch_hit_set 409780
scooby_register_prefetch_hit_set_total 409780

scooby_pref_issue_scooby 2517586

learning_engine_featurewise.action.called 1165898
learning_engine_featurewise.action.explore 2140
learning_engine_featurewise.action.exploit 1163758
learning_engine_featurewise.action.fallback 0
learning_engine_featurewise.action.dyn_fallback_saved_bw 0
learning_engine_featurewise.action.dyn_fallback_saved_bw_acc 11
learning_engine_featurewise.action.index_1_explored 141
learning_engine_featurewise.action.index_1_exploited 582149
learning_engine_featurewise.action.index_3_explored 154
learning_engine_featurewise.action.index_3_exploited 173
learning_engine_featurewise.action.index_4_explored 146
learning_engine_featurewise.action.index_4_exploited 177
learning_engine_featurewise.action.index_5_explored 138
learning_engine_featurewise.action.index_5_exploited 174
learning_engine_featurewise.action.index_10_explored 156
learning_engine_featurewise.action.index_10_exploited 174
learning_engine_featurewise.action.index_11_explored 135
learning_engine_featurewise.action.index_11_exploited 174
learning_engine_featurewise.action.index_12_explored 144
learning_engine_featurewise.action.index_12_exploited 205398
learning_engine_featurewise.action.index_22_explored 151
learning_engine_featurewise.action.index_22_exploited 95
learning_engine_featurewise.action.index_23_explored 145
learning_engine_featurewise.action.index_23_exploited 58
learning_engine_featurewise.action.index_30_explored 151
learning_engine_featurewise.action.index_30_exploited 58
learning_engine_featurewise.action.index_32_explored 125
learning_engine_featurewise.action.index_32_exploited 375127
learning_engine_featurewise.action.index_-1_explored 140
learning_engine_featurewise.action.index_-1_exploited 1
learning_engine_featurewise.action.index_-3_explored 140
learning_engine_featurewise.action.index_-3_exploited 0
learning_engine_featurewise.action.index_-6_explored 128
learning_engine_featurewise.action.index_-6_exploited 0
learning_engine_featurewise.action.index_0_explored 146
learning_engine_featurewise.action.index_0_exploited 0
learning_engine_featurewise.learn.called 1026285
learning_engine_featurewise.learn.su_skip_PC 0
learning_engine_featurewise.learn.su_skip_PC_Delta 0

learning_engine_featurewise.q_value_histogram.bucket_0 0
learning_engine_featurewise.q_value_histogram.bucket_1 0
learning_engine_featurewise.q_value_histogram.bucket_2 0
learning_engine_featurewise.q_value_histogram.bucket_3 0
learning_engine_featurewise.q_value_histogram.bucket_4 2536
learning_engine_featurewise.q_value_histogram.bucket_5 1998
learning_engine_featurewise.q_value_histogram.bucket_6 1159224
learning_engine_featurewise.q_value_histogram.bucket_7 0

learning_engine_featurewise.consensus.total 1163758
learning_engine_featurewise.consensus.feature_align_PC 1163476
learning_engine_featurewise.consensus.feature_align_PC_ratio 1.00
learning_engine_featurewise.consensus.feature_align_PC_Delta 1163534
learning_engine_featurewise.consensus.feature_align_PC_Delta_ratio 1.00
learning_engine_featurewise.consensus.feature_align_all 1163252
learning_engine_featurewise.consensus.feature_align_all_ratio 1.00

learning_engine_featurewise.feature_PC_min_weight 1000000.00000000
learning_engine_featurewise.feature_PC_max_weight 0.00000000
learning_engine_featurewise.feature_PC_Delta_min_weight 1000000.00000000
learning_engine_featurewise.feature_PC_Delta_max_weight 0.00000000
unique_pcs 90
unique_pages 87525
unique_trigger_pcs 41
total_bitmaps_seen 0
unique_bitmaps_seen 0

scooby_bw_epochs 325584
scooby_bw_level_0 107398
scooby_bw_level_1 181464
scooby_bw_level_2 25047
scooby_bw_level_3 11675

scooby_ipc_epochs 0
scooby_ipc_level_0 0
scooby_ipc_level_1 0
scooby_ipc_level_2 0
scooby_ipc_level_3 0

scooby_cache_acc_epochs 71972
scooby_cache_acc_level_0 2
scooby_cache_acc_level_1 2
scooby_cache_acc_level_2 39
scooby_cache_acc_level_3 4
scooby_cache_acc_level_4 57
scooby_cache_acc_level_5 334
scooby_cache_acc_level_6 1365
scooby_cache_acc_level_7 3758
scooby_cache_acc_level_8 10253
scooby_cache_acc_level_9 56158

Channel_0_RQ_row_buffer_hit 577349
Channel_0_RQ_row_buffer_miss 501977
Channel_0_WQ_row_buffer_hit 236463
Channel_0_WQ_row_buffer_miss 148565
Channel_0_WQ_full 0
Channel_0_dbus_congested 531447

avg_congested_cycle 9

DRAM_bw_pochs 325584
DRAM_bw_level_0 107398
DRAM_bw_level_1 181464
DRAM_bw_level_2 25047
DRAM_bw_level_3 11675
