*************************************************
   ChampSim Multicore Out-of-Order Simulator
   Last compiled: Apr  3 2025 20:54:34
*************************************************
parsing config file: /home/zir/Pythia/config/pythia.ini

trace_0 /home/zir/ChampSim/ML-DPC/ChampSimTraces/spec17/605.mcf-s3.trace.xz
adding L2C_PREFETCHER: Scooby
Initialize SHIP state
warmup_instructions 10000000
simulation_instructions 50000000
champsim_seed 166
measure_ipc 0
measure_ipc_epoch 1000
measure_dram_bw 1
measure_dram_bw_epoch 256
measure_cache_acc 1
measure_cache_acc_epoch 1024
l1d_perfect 0
l2c_perfect 0
llc_perfect 0
l1d_semi_perfect 0
l2c_semi_perfect 0
llc_semi_perfect 0
semi_perfect_cache_page_buffer_size 64

num_cpus 1
cpu_freq 4000
dram_io_freq 2400
page_size 4096
block_size 64
max_read_per_cycle 8
max_fill_per_cycle 1
dram_channels 1
log2_dram_channels 0
dram_ranks 1
dram_banks 8
dram_rows 65536
dram_columns 128
dram_row_size 8
dram_size 4096
dram_pages 1048576

fetch_width 6
decode_width 6
exec_width 4
lq_width 2
sq_width 2
retire_width 4
scheduler_size 128
branch_mispredict_penalty 20
rob_size 256
lq_size 72
sq_size 56
num_instr_destinations_sparc 4
num_instr_destinations 2
num_instr_sources 4

itlb_set 16
itlb_way 8
itlb_rq_size 16
itlb_wq_size 16
itlb_pq_size 0
itlb_mshr_size 8
itlb_latency 1

dtlb_set 16
dtlb_way 4
dtlb_rq_size 16
dtlb_wq_size 16
dtlb_pq_size 0
dtlb_mshr_size 8
dtlb_latency 1

stlb_set 128
stlb_way 12
stlb_rq_size 32
stlb_wq_size 32
stlb_pq_size 0
stlb_mshr_size 16
stlb_latency 8

l1i_size 32
l1i_set 64
l1i_way 8
l1i_rq_size 64
l1i_wq_size 64
l1i_pq_size 8
l1i_mshr_size 8
l1i_latency 1

l1d_size 32
l1d_set 64
l1d_way 8
l1d_rq_size 64
l1d_wq_size 64
l1d_pq_size 8
l1d_mshr_size 16
l1d_latency 4

l2c_size 256
l2c_set 512
l2c_way 8
l2c_rq_size 32
l2c_wq_size 32
l2c_pq_size 32
l2c_mshr_size 32
l2c_latency 10

llc_size 2048
llc_set 2048
llc_way 16
llc_rq_size 32
llc_wq_size 32
llc_pq_size 32
llc_mshr_size 64
llc_latency 20

dram_channel_width 8
dram_wq_size 64
dram_rq_size 64
tRP 15
tRCD 15
tCAS 12.5
dram_dbus_turn_around_time 30
dram_write_high_wm 56
dram_write_low_wm 48
min_dram_writes_per_switch 16
dram_mtps 2400
dram_dbus_return_time 13

scooby_alpha 0.0065088
scooby_gamma 0.556301
scooby_epsilon 0.00182284
scooby_state_num_bits 10
scooby_max_states 1024
scooby_seed 200
scooby_policy EGreedy
scooby_learning_type SARSA
scooby_actions 1,3,4,5,10,11,12,22,23,30,32,-1,-3,-6,0,
scooby_max_actions 15
scooby_pt_size 256
scooby_st_size 64
scooby_max_pcs 5
scooby_max_offsets 5
scooby_max_deltas 5
scooby_reward_none -4
scooby_reward_incorrect -8
scooby_reward_correct_untimely 12
scooby_reward_correct_timely 20
scooby_brain_zero_init 0
scooby_enable_reward_all 0
scooby_enable_track_multiple 0
scooby_enable_reward_out_of_bounds 1
scooby_reward_out_of_bounds -12
scooby_state_type 1
scooby_state_hash_type 11
scooby_access_debug 0
scooby_print_access_debug 0
scooby_print_access_debug_pc deadbeef
scooby_print_access_debug_pc_count 0
scooby_print_trace 0
scooby_enable_state_action_stats 1
scooby_enable_reward_tracker_hit 0
scooby_reward_tracker_hit -2
scooby_enable_featurewise_engine 1
scooby_pref_degree 1
scooby_enable_dyn_degree 1
scooby_max_to_avg_q_thresholds 0.5,1,2,
scooby_dyn_degrees 1,2,4,4,
scooby_multi_deg_select_type 2
scooby_last_pref_offset_conf_thresholds 1,3,8,
scooby_dyn_degrees_type2 1,2,4,6,
scooby_action_tracker_size 2
scooby_high_bw_thresh 4
scooby_enable_hbw_reward 1
scooby_reward_hbw_correct_timely 20
scooby_reward_hbw_correct_untimely 12
scooby_reward_hbw_incorrect -14
scooby_reward_hbw_none -2
scooby_reward_hbw_out_of_bounds -12
scooby_reward_hbw_tracker_hit -2
scooby_last_pref_offset_conf_thresholds_hbw 1,3,8,
scooby_dyn_degrees_type2_hbw 1,2,4,6,

le_enable_trace 0
le_trace_interval 0
le_trace_file_name 
le_trace_state 0
le_enable_score_plot 0
le_plot_file_name 
le_plot_actions 
le_enable_action_trace 0
le_action_trace_interval 0
le_action_trace_name 
le_enable_action_plot 0

le_featurewise_active_features PC, PC_Delta
le_featurewise_num_tilings 3,3,
le_featurewise_num_tiles 128,128,
le_featurewise_hash_types 2,2,
le_featurewise_enable_tiling_offset 1,1,
le_featurewise_max_q_thresh 0.5
le_featurewise_enable_action_fallback 1
le_featurewise_feature_weights 1,1,
le_featurewise_enable_dynamic_weight 0
le_featurewise_weight_gradient 0.001
le_featurewise_disable_adjust_weight_all_features_align 1
le_featurewise_selective_update 0
le_featurewise_pooling_type 2
le_featurewise_enable_dyn_action_fallback 1
le_featurewise_bw_acc_check_level 1
le_featurewise_acc_thresh 2
le_featurewise_enable_trace 0
le_featurewise_trace_feature_type 0
le_featurewise_trace_feature 
le_featurewise_trace_interval 0
le_featurewise_trace_record_count 0
le_featurewise_trace_file_name 
le_featurewise_enable_score_plot 0
le_featurewise_plot_actions 
le_featurewise_plot_file_name 


Heartbeat CPU  0 instructions:    1000000 cycles:    1087551 heartbeat IPC: 0.91950 cumulative IPC: 0.91950 (Simulation time: 0 hr 0 min 2 sec) 
Heartbeat CPU  0 instructions:    2000000 cycles:    2160002 heartbeat IPC: 0.93244 cumulative IPC: 0.92593 (Simulation time: 0 hr 0 min 5 sec) 
Heartbeat CPU  0 instructions:    3000000 cycles:    3237607 heartbeat IPC: 0.92798 cumulative IPC: 0.92661 (Simulation time: 0 hr 0 min 7 sec) 
Heartbeat CPU  0 instructions:    4000000 cycles:    4320580 heartbeat IPC: 0.92338 cumulative IPC: 0.92580 (Simulation time: 0 hr 0 min 10 sec) 
Heartbeat CPU  0 instructions:    5000003 cycles:    5426736 heartbeat IPC: 0.90403 cumulative IPC: 0.92136 (Simulation time: 0 hr 0 min 12 sec) 
Heartbeat CPU  0 instructions:    6000002 cycles:    6527015 heartbeat IPC: 0.90886 cumulative IPC: 0.91926 (Simulation time: 0 hr 0 min 15 sec) 
Heartbeat CPU  0 instructions:    7000000 cycles:    7632432 heartbeat IPC: 0.90463 cumulative IPC: 0.91714 (Simulation time: 0 hr 0 min 17 sec) 
Heartbeat CPU  0 instructions:    8000000 cycles:    8738791 heartbeat IPC: 0.90387 cumulative IPC: 0.91546 (Simulation time: 0 hr 0 min 20 sec) 
Heartbeat CPU  0 instructions:    9000000 cycles:    9821082 heartbeat IPC: 0.92397 cumulative IPC: 0.91640 (Simulation time: 0 hr 0 min 22 sec) 
Heartbeat CPU  0 instructions:   10000002 cycles:   10881348 heartbeat IPC: 0.94316 cumulative IPC: 0.91900 (Simulation time: 0 hr 0 min 25 sec) 

Warmup complete CPU  0 instructions:   10000002 cycles:   10881348 (Simulation time: 0 hr 0 min 25 sec) 

Heartbeat CPU  0 instructions:   11000002 cycles:   17124738 heartbeat IPC: 0.16017 cumulative IPC: 0.16017 (Simulation time: 0 hr 0 min 29 sec) 
Heartbeat CPU  0 instructions:   12000000 cycles:   23460956 heartbeat IPC: 0.15782 cumulative IPC: 0.15899 (Simulation time: 0 hr 0 min 34 sec) 
Heartbeat CPU  0 instructions:   13000002 cycles:   29757167 heartbeat IPC: 0.15883 cumulative IPC: 0.15893 (Simulation time: 0 hr 0 min 38 sec) 
Heartbeat CPU  0 instructions:   14000000 cycles:   36128550 heartbeat IPC: 0.15695 cumulative IPC: 0.15843 (Simulation time: 0 hr 0 min 43 sec) 
Heartbeat CPU  0 instructions:   15000001 cycles:   42394428 heartbeat IPC: 0.15959 cumulative IPC: 0.15866 (Simulation time: 0 hr 0 min 47 sec) 
Heartbeat CPU  0 instructions:   16000000 cycles:   48785524 heartbeat IPC: 0.15647 cumulative IPC: 0.15829 (Simulation time: 0 hr 0 min 52 sec) 
Heartbeat CPU  0 instructions:   17000003 cycles:   55285498 heartbeat IPC: 0.15385 cumulative IPC: 0.15764 (Simulation time: 0 hr 0 min 57 sec) 
Heartbeat CPU  0 instructions:   18000000 cycles:   61380218 heartbeat IPC: 0.16408 cumulative IPC: 0.15842 (Simulation time: 0 hr 1 min 1 sec) 
Heartbeat CPU  0 instructions:   19000000 cycles:   67379143 heartbeat IPC: 0.16670 cumulative IPC: 0.15930 (Simulation time: 0 hr 1 min 5 sec) 
Heartbeat CPU  0 instructions:   20000000 cycles:   73357471 heartbeat IPC: 0.16727 cumulative IPC: 0.16006 (Simulation time: 0 hr 1 min 10 sec) 
Heartbeat CPU  0 instructions:   21000000 cycles:   79352570 heartbeat IPC: 0.16680 cumulative IPC: 0.16065 (Simulation time: 0 hr 1 min 14 sec) 
Heartbeat CPU  0 instructions:   22000002 cycles:   85461554 heartbeat IPC: 0.16369 cumulative IPC: 0.16090 (Simulation time: 0 hr 1 min 18 sec) 
Heartbeat CPU  0 instructions:   23000000 cycles:   91527025 heartbeat IPC: 0.16487 cumulative IPC: 0.16120 (Simulation time: 0 hr 1 min 22 sec) 
Heartbeat CPU  0 instructions:   24000000 cycles:   97642858 heartbeat IPC: 0.16351 cumulative IPC: 0.16136 (Simulation time: 0 hr 1 min 26 sec) 
Heartbeat CPU  0 instructions:   25000000 cycles:  103821118 heartbeat IPC: 0.16186 cumulative IPC: 0.16139 (Simulation time: 0 hr 1 min 31 sec) 
Heartbeat CPU  0 instructions:   26000000 cycles:  109844267 heartbeat IPC: 0.16603 cumulative IPC: 0.16168 (Simulation time: 0 hr 1 min 35 sec) 
Heartbeat CPU  0 instructions:   27000002 cycles:  115780209 heartbeat IPC: 0.16847 cumulative IPC: 0.16206 (Simulation time: 0 hr 1 min 39 sec) 
Heartbeat CPU  0 instructions:   28000000 cycles:  121921519 heartbeat IPC: 0.16283 cumulative IPC: 0.16210 (Simulation time: 0 hr 1 min 44 sec) 
Heartbeat CPU  0 instructions:   29000001 cycles:  128055320 heartbeat IPC: 0.16303 cumulative IPC: 0.16215 (Simulation time: 0 hr 1 min 48 sec) 
Heartbeat CPU  0 instructions:   30000001 cycles:  134243985 heartbeat IPC: 0.16159 cumulative IPC: 0.16212 (Simulation time: 0 hr 1 min 52 sec) 
Heartbeat CPU  0 instructions:   31000002 cycles:  140287830 heartbeat IPC: 0.16546 cumulative IPC: 0.16228 (Simulation time: 0 hr 1 min 56 sec) 
Heartbeat CPU  0 instructions:   32000000 cycles:  146369547 heartbeat IPC: 0.16443 cumulative IPC: 0.16238 (Simulation time: 0 hr 2 min 0 sec) 
Heartbeat CPU  0 instructions:   33000003 cycles:  152585970 heartbeat IPC: 0.16086 cumulative IPC: 0.16231 (Simulation time: 0 hr 2 min 5 sec) 
Heartbeat CPU  0 instructions:   34000002 cycles:  158665588 heartbeat IPC: 0.16448 cumulative IPC: 0.16240 (Simulation time: 0 hr 2 min 9 sec) 
Heartbeat CPU  0 instructions:   35000000 cycles:  164744056 heartbeat IPC: 0.16451 cumulative IPC: 0.16248 (Simulation time: 0 hr 2 min 13 sec) 
Heartbeat CPU  0 instructions:   36000000 cycles:  170837296 heartbeat IPC: 0.16412 cumulative IPC: 0.16254 (Simulation time: 0 hr 2 min 18 sec) 
Heartbeat CPU  0 instructions:   37000001 cycles:  176931096 heartbeat IPC: 0.16410 cumulative IPC: 0.16260 (Simulation time: 0 hr 2 min 22 sec) 
Heartbeat CPU  0 instructions:   38000002 cycles:  182936843 heartbeat IPC: 0.16651 cumulative IPC: 0.16274 (Simulation time: 0 hr 2 min 26 sec) 
Heartbeat CPU  0 instructions:   39000003 cycles:  189015015 heartbeat IPC: 0.16452 cumulative IPC: 0.16280 (Simulation time: 0 hr 2 min 30 sec) 
Heartbeat CPU  0 instructions:   40000000 cycles:  195257300 heartbeat IPC: 0.16020 cumulative IPC: 0.16271 (Simulation time: 0 hr 2 min 35 sec) 
Heartbeat CPU  0 instructions:   41000002 cycles:  201275909 heartbeat IPC: 0.16615 cumulative IPC: 0.16282 (Simulation time: 0 hr 2 min 39 sec) 
Heartbeat CPU  0 instructions:   42000002 cycles:  207416383 heartbeat IPC: 0.16285 cumulative IPC: 0.16282 (Simulation time: 0 hr 2 min 44 sec) 
Heartbeat CPU  0 instructions:   43000003 cycles:  213540476 heartbeat IPC: 0.16329 cumulative IPC: 0.16284 (Simulation time: 0 hr 2 min 48 sec) 
Heartbeat CPU  0 instructions:   44000000 cycles:  219655283 heartbeat IPC: 0.16354 cumulative IPC: 0.16286 (Simulation time: 0 hr 2 min 52 sec) 
Heartbeat CPU  0 instructions:   45000003 cycles:  225830142 heartbeat IPC: 0.16195 cumulative IPC: 0.16283 (Simulation time: 0 hr 2 min 57 sec) 
Heartbeat CPU  0 instructions:   46000000 cycles:  232126288 heartbeat IPC: 0.15883 cumulative IPC: 0.16272 (Simulation time: 0 hr 3 min 1 sec) 
Heartbeat CPU  0 instructions:   47000000 cycles:  238230517 heartbeat IPC: 0.16382 cumulative IPC: 0.16275 (Simulation time: 0 hr 3 min 5 sec) 
Heartbeat CPU  0 instructions:   48000000 cycles:  244361313 heartbeat IPC: 0.16311 cumulative IPC: 0.16275 (Simulation time: 0 hr 3 min 9 sec) 
Heartbeat CPU  0 instructions:   49000000 cycles:  250496596 heartbeat IPC: 0.16299 cumulative IPC: 0.16276 (Simulation time: 0 hr 3 min 14 sec) 
Heartbeat CPU  0 instructions:   50000003 cycles:  256681612 heartbeat IPC: 0.16168 cumulative IPC: 0.16273 (Simulation time: 0 hr 3 min 18 sec) 
Heartbeat CPU  0 instructions:   51000000 cycles:  262843402 heartbeat IPC: 0.16229 cumulative IPC: 0.16272 (Simulation time: 0 hr 3 min 22 sec) 
Heartbeat CPU  0 instructions:   52000000 cycles:  268973346 heartbeat IPC: 0.16313 cumulative IPC: 0.16273 (Simulation time: 0 hr 3 min 27 sec) 
Heartbeat CPU  0 instructions:   53000000 cycles:  275120786 heartbeat IPC: 0.16267 cumulative IPC: 0.16273 (Simulation time: 0 hr 3 min 31 sec) 
Heartbeat CPU  0 instructions:   54000003 cycles:  281150162 heartbeat IPC: 0.16586 cumulative IPC: 0.16280 (Simulation time: 0 hr 3 min 35 sec) 
Heartbeat CPU  0 instructions:   55000002 cycles:  287221987 heartbeat IPC: 0.16469 cumulative IPC: 0.16284 (Simulation time: 0 hr 3 min 40 sec) 
Heartbeat CPU  0 instructions:   56000000 cycles:  293457680 heartbeat IPC: 0.16037 cumulative IPC: 0.16279 (Simulation time: 0 hr 3 min 44 sec) 
Heartbeat CPU  0 instructions:   57000002 cycles:  299527278 heartbeat IPC: 0.16476 cumulative IPC: 0.16283 (Simulation time: 0 hr 3 min 48 sec) 
Heartbeat CPU  0 instructions:   58000000 cycles:  305738036 heartbeat IPC: 0.16101 cumulative IPC: 0.16279 (Simulation time: 0 hr 3 min 52 sec) 
Heartbeat CPU  0 instructions:   59000000 cycles:  311939611 heartbeat IPC: 0.16125 cumulative IPC: 0.16276 (Simulation time: 0 hr 3 min 57 sec) 
Heartbeat CPU  0 instructions:   60000000 cycles:  317988253 heartbeat IPC: 0.16533 cumulative IPC: 0.16281 (Simulation time: 0 hr 4 min 1 sec) 
Finished CPU 0 instructions: 50000003 cycles: 307106934 cumulative IPC: 0.16281 (Simulation time: 0 hr 4 min 1 sec) 

ChampSim completed all CPUs

[ROI Statistics]
Core_0_instructions 50000003
Core_0_cycles 307106934
Core_0_IPC 0.16281

Core_0_branch_prediction_accuracy 92.35942
Core_0_branch_MPKI 6.15474
Core_0_average_ROB_occupancy_at_mispredict 116.97704

Core_0_L1D_total_access 25642848
Core_0_L1D_total_hit 21133935
Core_0_L1D_total_miss 4508913
Core_0_L1D_loads 15786352
Core_0_L1D_load_hit 13463841
Core_0_L1D_load_miss 2322511
Core_0_L1D_RFOs 9856496
Core_0_L1D_RFO_hit 7670094
Core_0_L1D_RFO_miss 2186402
Core_0_L1D_prefetches 0
Core_0_L1D_prefetch_hit 0
Core_0_L1D_prefetch_miss 0
Core_0_L1D_writebacks 0
Core_0_L1D_writeback_hit 0
Core_0_L1D_writeback_miss 0
Core_0_L1D_prefetch_requested 0
Core_0_L1D_prefetch_dropped 0
Core_0_L1D_prefetch_issued 0
Core_0_L1D_prefetch_filled 0
Core_0_L1D_prefetch_useful 0
Core_0_L1D_prefetch_useless 0
Core_0_L1D_prefetch_late 0
Core_0_L1D_average_miss_latency 282.12624

Core_0_L1D_rq_access 19823883
Core_0_L1D_rq_forward 0
Core_0_L1D_rq_merged 3804188
Core_0_L1D_rq_to_cache 16019630
Core_0_L1D_rq_full 0

Core_0_L1D_wq_access 17491234
Core_0_L1D_wq_forward 65
Core_0_L1D_wq_merged 2
Core_0_L1D_wq_to_cache 17491232
Core_0_L1D_wq_full 0

Core_0_L1D_pq_access 0
Core_0_L1D_pq_forward 0
Core_0_L1D_pq_merged 0
Core_0_L1D_pq_to_cache 0
Core_0_L1D_pq_full 0

Core_0_L1D_acc_epochs 195265
Core_0_L1D_acc_level_0 195265
Core_0_L1D_acc_level_1 0
Core_0_L1D_acc_level_2 0
Core_0_L1D_acc_level_3 0
Core_0_L1D_acc_level_4 0
Core_0_L1D_acc_level_5 0
Core_0_L1D_acc_level_6 0
Core_0_L1D_acc_level_7 0
Core_0_L1D_acc_level_8 0
Core_0_L1D_acc_level_9 0

Core_0_L1I_total_access 10830269
Core_0_L1I_total_hit 10830269
Core_0_L1I_total_miss 0
Core_0_L1I_loads 10830269
Core_0_L1I_load_hit 10830269
Core_0_L1I_load_miss 0
Core_0_L1I_RFOs 0
Core_0_L1I_RFO_hit 0
Core_0_L1I_RFO_miss 0
Core_0_L1I_prefetches 0
Core_0_L1I_prefetch_hit 0
Core_0_L1I_prefetch_miss 0
Core_0_L1I_writebacks 0
Core_0_L1I_writeback_hit 0
Core_0_L1I_writeback_miss 0
Core_0_L1I_prefetch_requested 0
Core_0_L1I_prefetch_dropped 0
Core_0_L1I_prefetch_issued 0
Core_0_L1I_prefetch_filled 0
Core_0_L1I_prefetch_useful 0
Core_0_L1I_prefetch_useless 0
Core_0_L1I_prefetch_late 0
Core_0_L1I_average_miss_latency -nan

Core_0_L1I_rq_access 49999769
Core_0_L1I_rq_forward 0
Core_0_L1I_rq_merged 39169500
Core_0_L1I_rq_to_cache 10830269
Core_0_L1I_rq_full 0

Core_0_L1I_wq_access 0
Core_0_L1I_wq_forward 0
Core_0_L1I_wq_merged 0
Core_0_L1I_wq_to_cache 0
Core_0_L1I_wq_full 0

Core_0_L1I_pq_access 0
Core_0_L1I_pq_forward 0
Core_0_L1I_pq_merged 0
Core_0_L1I_pq_to_cache 0
Core_0_L1I_pq_full 0

Core_0_L1I_acc_epochs 195265
Core_0_L1I_acc_level_0 195265
Core_0_L1I_acc_level_1 0
Core_0_L1I_acc_level_2 0
Core_0_L1I_acc_level_3 0
Core_0_L1I_acc_level_4 0
Core_0_L1I_acc_level_5 0
Core_0_L1I_acc_level_6 0
Core_0_L1I_acc_level_7 0
Core_0_L1I_acc_level_8 0
Core_0_L1I_acc_level_9 0

Core_0_L2C_total_access 12158086
Core_0_L2C_total_hit 7740693
Core_0_L2C_total_miss 4417393
Core_0_L2C_loads 2322460
Core_0_L2C_load_hit 1268418
Core_0_L2C_load_miss 1054042
Core_0_L2C_RFOs 2186402
Core_0_L2C_RFO_hit 675
Core_0_L2C_RFO_miss 2185727
Core_0_L2C_prefetches 3140312
Core_0_L2C_prefetch_hit 1964886
Core_0_L2C_prefetch_miss 1175426
Core_0_L2C_writebacks 4508912
Core_0_L2C_writeback_hit 4506714
Core_0_L2C_writeback_miss 2198
Core_0_L2C_prefetch_requested 6183261
Core_0_L2C_prefetch_dropped 0
Core_0_L2C_prefetch_issued 6183261
Core_0_L2C_prefetch_filled 1428708
Core_0_L2C_prefetch_useful 1336636
Core_0_L2C_prefetch_useless 91983
Core_0_L2C_prefetch_late 74848
Core_0_L2C_average_miss_latency 378.61840

Core_0_L2C_rq_access 4508916
Core_0_L2C_rq_forward 0
Core_0_L2C_rq_merged 0
Core_0_L2C_rq_to_cache 4508865
Core_0_L2C_rq_full 0

Core_0_L2C_wq_access 4508913
Core_0_L2C_wq_forward 52
Core_0_L2C_wq_merged 0
Core_0_L2C_wq_to_cache 4508913
Core_0_L2C_wq_full 0

Core_0_L2C_pq_access 6183261
Core_0_L2C_pq_forward 0
Core_0_L2C_pq_merged 1298004
Core_0_L2C_pq_to_cache 4885256
Core_0_L2C_pq_full 0

Core_0_L2C_acc_epochs 195265
Core_0_L2C_acc_level_0 2
Core_0_L2C_acc_level_1 11
Core_0_L2C_acc_level_2 44
Core_0_L2C_acc_level_3 338
Core_0_L2C_acc_level_4 1397
Core_0_L2C_acc_level_5 2318
Core_0_L2C_acc_level_6 5276
Core_0_L2C_acc_level_7 16282
Core_0_L2C_acc_level_8 35256
Core_0_L2C_acc_level_9 134341

Core_0_LLC_total_access 8751541
Core_0_LLC_total_hit 1941036
Core_0_LLC_total_miss 6810505
Core_0_LLC_loads 979694
Core_0_LLC_load_hit 835149
Core_0_LLC_load_miss 144545
Core_0_LLC_RFOs 2185727
Core_0_LLC_RFO_hit 15034
Core_0_LLC_RFO_miss 2170693
Core_0_LLC_prefetches 1249746
Core_0_LLC_prefetch_hit 33068
Core_0_LLC_prefetch_miss 1216678
Core_0_LLC_writebacks 4336374
Core_0_LLC_writeback_hit 1057785
Core_0_LLC_writeback_miss 3278589
Core_0_LLC_prefetch_requested 0
Core_0_LLC_prefetch_dropped 0
Core_0_LLC_prefetch_issued 0
Core_0_LLC_prefetch_filled 1466601
Core_0_LLC_prefetch_useful 1907
Core_0_LLC_prefetch_useless 1463638
Core_0_LLC_prefetch_late 0
Core_0_LLC_average_miss_latency 219.97714

Core_0_LLC_rq_access 3165451
Core_0_LLC_rq_forward 0
Core_0_LLC_rq_merged 0
Core_0_LLC_rq_to_cache 3165423
Core_0_LLC_rq_full 0

Core_0_LLC_wq_access 4336374
Core_0_LLC_wq_forward 28
Core_0_LLC_wq_merged 0
Core_0_LLC_wq_to_cache 4336374
Core_0_LLC_wq_full 0

Core_0_LLC_pq_access 1503556
Core_0_LLC_pq_forward 0
Core_0_LLC_pq_merged 0
Core_0_LLC_pq_to_cache 1503556
Core_0_LLC_pq_full 0

Core_0_LLC_acc_epochs 310536
Core_0_LLC_acc_level_0 309263
Core_0_LLC_acc_level_1 934
Core_0_LLC_acc_level_2 243
Core_0_LLC_acc_level_3 5
Core_0_LLC_acc_level_4 0
Core_0_LLC_acc_level_5 86
Core_0_LLC_acc_level_6 0
Core_0_LLC_acc_level_7 0
Core_0_LLC_acc_level_8 0
Core_0_LLC_acc_level_9 5

Core_0_major_page_fault 0
Core_0_minor_page_fault 223664

scooby_st_lookup 2781854
scooby_st_hit 2412229
scooby_st_evict 369561
scooby_st_insert 369625
scooby_st_streaming 0

scooby_predict_called 2781854
scooby_predict_out_of_bounds 33195
scooby_predict_action_1 1380827
scooby_predict_issue_action_1 1228437
scooby_predict_hit_action_1 152390
scooby_predict_out_of_bounds_action_1 21291
scooby_predict_action_3 156715
scooby_predict_issue_action_3 156486
scooby_predict_hit_action_3 229
scooby_predict_out_of_bounds_action_3 7752
scooby_predict_action_4 1825
scooby_predict_issue_action_4 1817
scooby_predict_hit_action_4 8
scooby_predict_out_of_bounds_action_4 117
scooby_predict_action_5 2025
scooby_predict_issue_action_5 2021
scooby_predict_hit_action_5 4
scooby_predict_out_of_bounds_action_5 124
scooby_predict_action_10 1871
scooby_predict_issue_action_10 1860
scooby_predict_hit_action_10 11
scooby_predict_out_of_bounds_action_10 253
scooby_predict_action_11 1700
scooby_predict_issue_action_11 1690
scooby_predict_hit_action_11 10
scooby_predict_out_of_bounds_action_11 248
scooby_predict_action_12 1577
scooby_predict_issue_action_12 1569
scooby_predict_hit_action_12 8
scooby_predict_out_of_bounds_action_12 290
scooby_predict_action_22 1311
scooby_predict_issue_action_22 1308
scooby_predict_hit_action_22 3
scooby_predict_out_of_bounds_action_22 454
scooby_predict_action_23 1239
scooby_predict_issue_action_23 1230
scooby_predict_hit_action_23 9
scooby_predict_out_of_bounds_action_23 477
scooby_predict_action_30 953
scooby_predict_issue_action_30 944
scooby_predict_hit_action_30 9
scooby_predict_out_of_bounds_action_30 630
scooby_predict_action_32 1471
scooby_predict_issue_action_32 1464
scooby_predict_hit_action_32 7
scooby_predict_out_of_bounds_action_32 1085
scooby_predict_action_-1 2264
scooby_predict_issue_action_-1 2057
scooby_predict_hit_action_-1 207
scooby_predict_out_of_bounds_action_-1 46
scooby_predict_action_-3 2527
scooby_predict_issue_action_-3 2379
scooby_predict_hit_action_-3 148
scooby_predict_out_of_bounds_action_-3 166
scooby_predict_action_-6 2073
scooby_predict_issue_action_-6 1953
scooby_predict_hit_action_-6 120
scooby_predict_out_of_bounds_action_-6 262
scooby_predict_action_0 1190281
scooby_predict_issue_action_0 0
scooby_predict_hit_action_0 0
scooby_predict_out_of_bounds_action_0 0
scooby_predict_multi_deg_called 1152167
scooby_predict_predicted 6183261
scooby_predict_multi_deg 4778046
scooby_predict_multi_deg_2 1126853
scooby_predict_multi_deg_3 1009734
scooby_predict_multi_deg_4 985486
scooby_predict_multi_deg_5 836995
scooby_predict_multi_deg_6 818978
scooby_predict_multi_deg_7 0
scooby_predict_multi_deg_8 0
scooby_predict_multi_deg_9 0
scooby_predict_multi_deg_10 0
scooby_predict_multi_deg_11 0
scooby_predict_multi_deg_12 0
scooby_predict_multi_deg_13 0
scooby_predict_multi_deg_14 0
scooby_predict_multi_deg_15 0
scooby_predict_multi_deg_16 0

scooby_selected_deg_1 253048
scooby_selected_deg_2 92412
scooby_selected_deg_3 0
scooby_selected_deg_4 150586
scooby_selected_deg_5 0
scooby_selected_deg_6 909169
scooby_selected_deg_7 0
scooby_selected_deg_8 0
scooby_selected_deg_9 0
scooby_selected_deg_10 0
scooby_selected_deg_11 0
scooby_selected_deg_12 0
scooby_selected_deg_13 0
scooby_selected_deg_14 0
scooby_selected_deg_15 0
scooby_selected_deg_16 0

scooby_state_4033a0|0|0 20465,0,1,3,5,1,2,4,0,1,4,1,6,2,4,20499,
scooby_state_4033a0|1|1 17577,4,3,0,6,2,3,1,4,3,2,1,2,2,1,17611,
scooby_state_4033b9|63|0 3,5,6,3,5,2,3,7,2,4,1,8,2,6,17168,17225,
scooby_state_4033b9|62|0 0,6,5,2,6,1,6,4,3,5,5,5,0,5,16179,16232,
scooby_state_4033a0|38|1 15451,1,1,2,2,0,1,3,1,3,3,5,0,1,2,15476,
scooby_state_4033a0|18|1 15439,0,4,3,6,5,0,2,3,3,1,3,1,1,1,15472,
scooby_state_4033a0|37|1 15439,1,3,4,2,2,5,3,1,2,0,4,0,3,3,15472,
scooby_state_4033a0|24|1 15447,0,5,1,3,1,1,2,2,3,0,1,2,1,2,15471,
scooby_state_4033a0|59|1 15451,0,1,1,4,0,3,1,1,0,1,2,3,3,0,15471,
scooby_state_4033a0|56|1 15442,2,4,1,1,1,2,3,1,2,0,1,4,2,3,15469,
scooby_state_4033a0|41|1 15447,1,2,1,1,0,4,0,1,2,1,4,0,0,3,15467,
scooby_state_4033a0|36|1 15444,4,2,1,2,2,0,2,0,0,3,1,1,0,3,15465,
scooby_state_4033a0|32|1 15432,0,4,2,1,0,3,2,1,3,3,2,4,2,5,15464,
scooby_state_4033a0|55|1 15433,3,4,2,4,1,3,2,1,3,0,2,4,1,0,15463,
scooby_state_4033a0|35|1 15433,5,1,0,0,1,1,2,2,4,3,5,0,2,4,15463,
scooby_state_4033a0|27|1 15438,1,3,1,1,1,0,3,3,3,0,3,1,2,2,15462,
scooby_state_4033a0|39|1 15439,1,2,2,1,2,2,2,2,3,0,1,4,0,1,15462,
scooby_state_4033a0|40|1 15435,3,2,2,2,3,2,0,2,1,1,4,1,4,0,15462,
scooby_state_4033a0|58|1 15426,2,4,1,1,2,3,2,4,6,3,1,2,3,2,15462,
scooby_state_4033a0|62|1 15439,0,0,0,2,5,3,1,1,1,1,4,2,1,0,15460,
scooby_state_4033a0|21|1 15426,2,1,5,0,0,1,1,9,0,1,1,5,3,4,15459,
scooby_state_4033a0|34|1 15435,3,1,1,3,1,1,1,2,3,0,2,0,3,3,15459,
scooby_state_4033a0|44|1 15430,2,1,1,3,2,1,4,2,2,2,3,2,1,2,15458,
scooby_state_4033a0|19|1 15425,4,0,2,2,6,1,1,2,2,2,4,4,2,1,15458,
scooby_state_4033a0|33|1 15439,4,1,1,4,2,0,1,0,2,0,1,0,1,2,15458,
scooby_state_4033a0|57|1 15436,1,2,1,1,3,3,1,2,2,2,1,0,0,3,15458,
scooby_state_4033a0|17|1 15433,0,1,3,1,1,1,7,3,0,3,1,1,0,2,15457,
scooby_state_4033a0|28|1 15442,0,3,2,1,0,1,2,2,2,1,0,1,0,0,15457,
scooby_state_4033a0|60|1 15424,3,2,2,6,2,5,1,2,2,2,0,4,2,0,15457,
scooby_state_4033a0|31|1 15428,4,1,0,2,2,1,2,2,1,1,1,2,7,2,15456,
scooby_state_4033a0|16|1 15428,0,1,3,1,4,4,4,3,0,0,2,3,1,2,15456,
scooby_state_4033a0|25|1 15426,3,1,0,2,2,4,3,3,1,2,2,1,3,3,15456,
scooby_state_4033a0|11|1 15422,3,1,2,2,4,3,3,4,2,1,3,1,3,2,15456,
scooby_state_4033a0|49|1 15429,1,3,3,1,2,4,2,3,1,2,1,1,0,2,15455,
scooby_state_4033a0|14|1 15436,1,1,2,2,1,2,2,1,3,0,0,3,1,0,15455,
scooby_state_4033a0|61|1 15435,0,2,1,0,1,3,0,3,3,1,1,2,2,1,15455,
scooby_state_4033a0|43|1 15424,2,1,3,2,3,4,1,1,2,0,4,5,1,2,15455,
scooby_state_4033a0|7|1 15425,2,0,3,3,0,4,3,1,3,2,2,2,2,3,15455,
scooby_state_4033a0|23|1 15419,1,2,4,5,0,3,1,2,3,2,1,1,7,3,15454,
scooby_state_4033a0|15|1 15424,1,3,2,2,4,4,4,0,2,1,2,1,3,0,15453,
scooby_state_4033a0|26|1 15428,2,0,1,1,4,1,1,1,2,2,3,1,2,3,15452,
scooby_state_4033a0|47|1 15430,1,4,2,1,0,5,1,0,1,2,2,0,2,1,15452,
scooby_state_4033a0|13|1 15417,2,6,2,1,3,3,3,2,2,4,1,2,3,1,15452,
scooby_state_4033a0|29|1 15420,3,2,1,2,4,2,6,3,0,3,1,2,1,1,15451,
scooby_state_4033a0|63|1 15427,1,4,1,1,1,3,0,1,0,2,3,0,4,2,15450,
scooby_state_4033a0|46|1 15422,2,3,1,3,0,2,2,4,2,3,2,2,1,1,15450,
scooby_state_4033a0|22|1 15431,1,0,0,1,1,2,2,3,1,2,1,3,0,1,15449,
scooby_state_4033a0|42|1 15420,1,2,1,3,4,3,2,2,2,2,3,2,0,2,15449,
scooby_state_4033a0|12|1 15427,0,1,2,1,1,3,3,2,3,1,1,0,1,3,15449,
scooby_state_4033a0|50|1 15423,0,1,5,2,1,2,3,2,1,0,4,3,2,0,15449,
scooby_state_4033a0|8|1 15418,1,2,1,5,3,1,4,0,1,4,3,2,1,2,15448,
scooby_state_4033a0|48|1 15423,1,2,2,1,3,2,4,0,0,2,3,2,1,2,15448,
scooby_state_4033a0|10|1 15417,2,3,2,5,2,3,2,4,0,2,3,0,2,1,15448,
scooby_state_4033a0|6|1 15415,2,0,1,6,2,1,2,5,5,3,1,1,3,1,15448,
scooby_state_4033a0|52|1 15419,0,2,6,6,0,2,2,2,2,2,2,0,0,2,15447,
scooby_state_4033a0|54|1 15425,0,0,2,1,4,2,3,2,0,3,1,0,1,3,15447,
scooby_state_4033a0|20|1 15417,5,3,0,1,1,1,1,1,4,0,4,1,2,5,15446,
scooby_state_4033a0|45|1 15415,2,5,0,1,1,1,2,3,4,1,1,2,2,5,15445,
scooby_state_4033a0|30|1 15415,1,1,1,3,3,5,3,2,1,2,1,1,3,1,15443,
scooby_state_4033a0|51|1 15418,2,1,1,1,1,3,1,3,2,2,1,3,2,1,15442,
scooby_state_4033a0|5|1 15414,3,2,2,2,1,2,4,1,2,2,2,2,1,2,15442,
scooby_state_4033a0|53|1 15420,0,1,3,3,1,0,0,1,1,2,1,6,0,2,15441,
scooby_state_4033a0|9|1 15420,0,4,1,2,5,1,2,2,3,0,0,1,0,0,15441,
scooby_state_4033a0|4|1 15366,4,1,1,2,3,1,2,2,0,0,2,1,1,0,15386,
scooby_state_4033a0|2|1 15237,1,1,1,2,3,1,2,0,4,2,4,0,0,3,15261,
scooby_state_4033a0|3|1 15119,4,3,0,4,3,3,2,0,4,4,3,2,2,1,15154,
scooby_state_4033b9|61|0 3,2,6,3,6,0,4,3,1,2,2,8,2,2,14491,14535,
scooby_state_4033b9|60|0 6,3,3,5,4,5,2,1,2,1,3,8,5,1,14002,14051,
scooby_state_4033b9|59|0 4,3,2,1,2,4,6,3,2,2,3,6,3,4,12969,13014,
scooby_state_4033b9|57|0 2,5,4,1,3,1,3,3,5,1,2,4,3,5,12369,12411,
scooby_state_4033b9|58|0 3,6,3,2,0,1,4,4,3,0,3,7,6,3,11755,11800,
scooby_state_4033b9|56|0 4,2,2,3,2,4,4,3,3,1,3,3,2,1,11362,11399,
scooby_state_4033b9|54|0 2,3,1,2,1,1,1,2,1,2,4,0,5,2,10101,10128,
scooby_state_4033b9|55|0 0,2,8,4,1,1,1,3,5,1,3,3,5,0,10065,10102,
scooby_state_4033b9|52|0 5,0,2,4,1,0,1,1,4,3,1,2,3,1,8800,8828,
scooby_state_4033b9|53|0 2,1,7,2,0,0,1,0,2,5,3,3,1,1,7930,7958,
scooby_state_4033b9|50|0 1,3,2,1,3,3,3,0,2,4,0,2,2,0,7809,7835,
scooby_state_4033b9|51|0 2,2,1,4,2,0,2,1,1,3,6,3,1,0,7295,7323,
scooby_state_4033b9|49|0 2,4,2,2,3,2,0,0,1,4,4,0,1,1,6928,6954,
scooby_state_4033b9|48|0 1,2,3,1,1,5,3,4,6,1,1,2,2,7,6863,6902,
scooby_state_4033b9|46|0 0,3,1,1,0,0,1,2,0,3,0,2,3,6,6801,6823,
scooby_state_4033b9|47|0 2,1,2,2,7,3,0,1,0,4,0,4,2,1,6591,6620,
scooby_state_4033b9|44|0 2,2,1,4,1,2,1,1,1,3,2,0,1,1,5795,5817,
scooby_state_4033b9|45|0 0,1,0,0,1,1,5,2,0,2,2,2,3,1,5661,5681,
scooby_state_4033a0|3|2 5206,0,0,0,0,0,0,3,0,0,0,0,4,0,1,5214,
scooby_state_4033a0|2|2 5142,0,0,0,2,0,0,0,1,0,0,0,0,1,2,5148,
scooby_state_4033a0|53|2 5052,0,1,0,1,1,0,0,0,1,0,0,0,1,1,5058,
scooby_state_4033a0|9|2 5044,1,2,1,1,2,1,0,2,2,2,0,0,0,0,5058,
scooby_state_4033a0|51|2 5047,1,1,0,0,1,0,0,0,1,2,2,0,0,2,5057,
scooby_state_4033a0|5|2 5046,0,0,1,0,1,2,1,0,1,2,0,0,3,0,5057,
scooby_state_4033a0|30|2 5049,1,0,1,0,0,0,1,2,0,0,0,0,1,0,5055,
scooby_state_4033a0|45|2 5045,1,1,0,2,2,0,0,1,1,0,0,1,0,0,5054,
scooby_state_4033a0|54|2 5044,1,0,0,2,0,0,1,0,0,1,0,1,0,2,5052,
scooby_state_4033a0|52|2 5046,1,0,0,0,0,0,1,0,1,0,2,0,1,0,5052,
scooby_state_4033a0|20|2 5049,1,0,0,0,0,0,0,0,1,0,0,1,0,0,5052,
scooby_state_4033a0|8|2 5044,0,0,0,1,1,1,1,0,1,0,0,1,1,0,5051,
scooby_state_4033a0|6|2 5039,3,2,1,0,1,0,3,0,0,0,0,1,0,1,5051,
scooby_state_4033a0|10|2 5039,3,1,1,2,3,1,0,0,0,0,0,0,1,0,5051,
scooby_state_4033a0|42|2 5033,2,1,0,1,1,1,2,1,2,0,1,0,3,2,5050,
scooby_state_4033a0|50|2 5043,0,1,0,1,0,0,0,0,0,0,2,0,0,3,5050,
scooby_state_4033a0|48|2 5044,0,0,0,1,0,0,0,0,1,1,0,0,1,2,5050,
scooby_state_4033a0|12|2 5042,0,0,1,0,2,0,1,1,0,1,0,0,0,1,5049,
scooby_state_4033a0|22|2 5044,1,0,1,0,0,0,0,1,0,0,0,1,1,0,5049,
scooby_state_4033a0|46|2 5039,2,1,1,0,3,0,0,1,0,0,1,0,0,1,5049,
scooby_state_4033a0|63|2 5040,0,1,0,5,1,0,0,0,1,0,1,0,0,0,5049,
scooby_state_4033a0|26|2 5040,1,0,1,0,0,1,1,0,0,0,0,1,0,2,5047,
scooby_state_4033a0|29|2 5045,0,0,0,0,1,0,0,0,0,0,0,0,1,0,5047,
scooby_state_4033a0|47|2 5041,0,1,0,0,0,0,0,0,1,1,1,0,1,0,5046,
scooby_state_4033a0|13|2 5035,0,1,0,0,0,0,0,0,2,0,1,2,1,4,5046,
scooby_state_4033a0|15|2 5040,2,0,1,0,1,0,0,0,1,0,0,0,0,1,5046,
scooby_state_4033a0|23|2 5037,0,0,0,2,0,0,0,0,0,0,1,0,2,3,5045,
scooby_state_4033a0|43|2 5036,0,0,0,0,1,2,0,1,1,2,0,0,0,1,5044,
scooby_state_4033a0|14|2 5034,1,1,1,0,0,3,0,0,1,1,1,0,0,1,5044,
scooby_state_4033a0|7|2 5036,0,0,1,0,1,0,1,1,1,0,1,0,1,1,5044,
scooby_state_4033a0|16|2 5037,1,0,0,1,1,0,1,0,0,1,0,1,0,0,5043,
scooby_state_4033a0|25|2 5038,0,0,0,0,0,0,0,0,1,0,0,2,2,0,5043,
scooby_state_4033a0|49|2 5033,0,1,0,1,1,0,1,1,1,2,0,2,0,0,5043,
scooby_state_4033a0|61|2 5035,2,0,0,1,1,2,2,0,0,0,0,0,0,0,5043,
scooby_state_4033a0|17|2 5037,1,0,0,0,0,0,1,0,1,0,0,1,0,1,5042,
scooby_state_4033a0|31|2 5032,0,1,1,1,0,1,1,2,0,1,0,1,1,0,5042,
scooby_state_4033a0|28|2 5037,0,0,0,0,0,1,1,1,0,1,0,0,1,0,5042,
scooby_state_4033a0|11|2 5036,1,0,0,1,0,0,0,1,1,0,1,0,1,0,5042,
scooby_state_4033a0|19|2 5032,3,0,1,0,1,0,0,0,1,1,0,0,2,0,5041,
scooby_state_4033a0|44|2 5037,1,0,0,0,1,1,0,1,0,0,0,0,0,0,5041,
scooby_state_4033a0|33|2 5032,2,1,3,0,0,0,0,0,0,0,1,1,0,1,5041,
scooby_state_4033a0|60|2 5033,2,1,0,1,2,0,1,0,0,0,1,0,0,0,5041,
scooby_state_4033a0|57|2 5032,0,0,0,1,0,1,1,1,0,0,1,3,0,0,5040,
scooby_state_4033a0|34|2 5033,0,0,0,0,1,1,0,1,3,0,0,0,0,1,5040,
scooby_state_4033a0|21|2 5035,1,0,0,0,0,1,1,0,0,0,0,1,0,0,5039,
scooby_state_4033a0|62|2 5031,0,0,1,1,1,0,1,0,1,0,0,2,0,0,5038,
scooby_state_4033a0|27|2 5030,0,0,2,0,0,0,0,0,1,1,0,1,2,0,5037,
scooby_state_4033a0|35|2 5024,1,1,1,2,2,0,0,3,0,0,1,0,0,1,5036,
scooby_state_4033a0|58|2 5023,1,3,1,1,1,1,0,0,0,1,2,0,2,0,5036,
scooby_state_4033a0|40|2 5026,3,0,1,1,0,0,1,2,0,0,1,0,1,0,5036,
scooby_state_4033a0|39|2 5026,3,0,2,2,1,0,0,2,0,0,0,0,0,0,5036,
scooby_state_4033a0|55|2 5024,0,0,0,3,1,1,3,0,0,0,1,0,2,1,5036,
scooby_state_4033a0|4|2 5028,2,1,0,1,0,0,0,0,1,0,0,1,0,1,5035,
scooby_state_4033a0|32|2 5030,2,0,1,0,1,0,0,0,0,0,0,1,0,0,5035,
scooby_state_4033a0|36|2 5026,0,0,1,1,1,0,1,1,2,0,0,0,0,1,5034,
scooby_state_4033a0|41|2 5024,2,0,0,1,0,1,0,1,0,1,2,0,0,0,5032,
scooby_state_4033a0|56|2 5018,1,2,0,0,2,1,0,2,0,1,0,1,1,0,5029,
scooby_state_4033a0|59|2 5019,1,0,0,1,1,1,1,0,0,1,0,0,2,1,5028,
scooby_state_4033a0|24|2 5021,1,0,0,1,0,0,1,1,1,1,1,0,0,0,5028,
scooby_state_4033a0|18|2 5019,0,1,2,0,0,1,0,0,0,0,1,0,0,3,5027,
scooby_state_4033a0|37|2 5017,0,1,1,0,1,2,1,0,0,2,0,1,0,1,5027,
scooby_state_4033a0|38|2 5013,1,3,0,0,0,1,0,1,1,0,2,0,0,0,5022,
scooby_state_4033b9|43|0 1,2,2,2,0,1,0,1,3,1,3,3,3,0,4962,4984,
scooby_state_4033b9|40|0 3,2,2,1,1,1,1,0,0,2,3,3,2,1,4565,4587,
scooby_state_4033b9|41|0 1,2,1,2,1,1,2,0,2,3,0,3,5,2,4511,4536,
scooby_state_4033b9|42|0 1,4,2,1,1,1,1,1,1,4,0,0,3,1,4170,4191,
scooby_state_4033b9|39|0 2,1,2,0,1,0,2,0,1,1,1,1,1,3,4154,4170,
scooby_state_4033b9|33|0 1,2,0,0,0,0,1,4,1,1,0,1,1,1,4061,4074,
scooby_state_4033b9|35|0 1,1,1,0,1,0,2,2,1,2,1,4,2,2,4034,4054,
scooby_state_4033b9|25|0 0,1,2,3,0,2,1,1,1,0,0,1,2,0,3987,4001,
scooby_state_4033b9|37|0 0,1,1,1,0,1,2,0,1,2,0,1,1,0,3892,3903,
scooby_state_4033b9|31|0 1,3,0,1,1,1,1,2,2,2,0,3,1,2,3849,3869,
scooby_state_4033b9|36|0 1,0,1,0,0,2,1,1,1,0,0,1,1,2,3734,3745,
scooby_state_4033b9|34|0 1,0,1,0,0,2,1,3,1,1,1,0,0,0,3626,3637,
scooby_state_4033b9|38|0 0,1,1,1,1,1,1,2,1,1,0,0,1,4,3513,3528,
scooby_state_4033b9|30|0 1,1,0,0,0,1,1,1,1,2,1,1,4,0,3325,3339,
scooby_state_4033b9|32|0 2,2,0,1,0,1,1,1,0,1,1,2,2,2,3295,3311,
scooby_state_4033b9|29|0 1,2,0,0,1,0,0,0,1,2,1,3,0,1,3156,3168,
scooby_state_4033b9|19|0 1,0,1,1,1,0,0,0,2,0,0,0,0,2,3100,3108,
scooby_state_4033b9|17|0 1,2,1,0,0,1,0,2,1,2,0,0,1,1,3048,3060,
scooby_state_4033b9|23|0 0,1,1,0,2,0,4,0,1,2,0,1,1,0,3032,3045,
scooby_state_4033b9|27|0 0,0,0,1,0,3,1,1,0,2,1,4,4,0,3014,3031,
scooby_state_4033b9|28|0 1,1,2,2,2,0,2,0,1,1,1,0,1,0,2803,2817,
scooby_state_4033b9|11|0 1,0,2,1,1,0,1,0,0,1,1,2,1,0,2794,2805,
scooby_state_4033b9|14|0 0,1,2,1,0,0,0,2,0,2,1,0,2,1,2788,2800,
scooby_state_4033b9|24|0 1,2,0,0,1,0,5,0,0,0,1,3,3,2,2640,2658,
scooby_state_4033b9|6|0 0,0,0,0,0,0,2,1,0,0,0,1,0,2,2643,2649,
scooby_state_4033b9|0|0 0,1,0,0,1,2,1,0,0,2,0,1,1,1,2632,2642,
scooby_state_4033b9|22|0 0,0,1,0,0,1,0,1,2,0,0,1,0,0,2636,2642,
scooby_state_4033b9|16|0 1,2,2,0,1,0,2,0,0,1,0,2,0,1,2595,2607,
scooby_state_4033b9|20|0 0,1,1,2,1,0,0,1,0,1,2,2,0,2,2523,2536,
scooby_state_4033a0|1|0 2526,0,0,1,0,0,0,0,0,0,0,1,0,0,0,2528,
scooby_state_4033b9|4|0 1,1,0,0,0,0,1,0,0,1,2,1,1,1,2504,2513,
scooby_state_4033b5|51|-1 1,2483,0,0,0,0,0,0,0,0,0,0,1,0,1,2486,
scooby_state_4033b5|7|-1 1,2480,1,0,0,0,1,0,0,0,1,0,1,0,1,2486,
scooby_state_4033b5|63|1 0,2479,2,0,0,0,0,0,0,1,1,0,0,0,0,2483,
scooby_state_4033b5|12|-1 1,2470,0,0,0,0,2,1,1,0,3,0,0,0,1,2479,
scooby_state_4033b5|11|-1 1,2469,1,1,0,1,0,0,0,0,0,2,1,0,2,2478,
scooby_state_4033b5|15|-1 0,2473,0,0,1,0,1,1,1,1,0,0,0,0,0,2478,
scooby_state_4033b5|28|-1 0,2475,0,1,0,0,0,0,0,0,0,0,0,0,1,2477,
scooby_state_4033b5|62|-1 1,2472,0,0,1,0,0,0,0,1,0,0,2,0,0,2477,
scooby_state_4033b5|45|-1 0,2475,0,0,0,0,0,0,0,0,0,0,0,0,2,2477,
scooby_state_4033b5|29|-1 0,2476,0,1,0,0,0,0,0,0,0,0,0,0,0,2477,
scooby_state_4033b5|49|-1 1,2472,0,0,0,0,0,1,0,1,0,1,1,0,0,2477,
scooby_state_4033b5|21|-1 2,2471,0,0,0,1,0,0,1,0,0,0,2,0,0,2477,
scooby_state_4033b5|8|-1 2,2468,0,1,1,2,0,1,0,0,1,0,0,0,0,2476,
scooby_state_4033b5|18|-1 1,2473,0,1,0,0,0,0,0,0,0,0,0,0,1,2476,
scooby_state_4033b5|38|-1 0,2471,1,0,1,1,0,0,1,0,0,0,0,0,0,2475,
scooby_state_4033b5|43|-1 0,2470,0,0,0,0,0,1,0,0,2,2,0,0,0,2475,
scooby_state_4033b5|56|-1 0,2474,0,1,0,0,0,0,0,0,0,0,0,0,0,2475,
scooby_state_4033b5|4|-1 0,2467,0,0,1,2,0,1,0,1,0,0,1,0,1,2474,
scooby_state_4033b5|52|-1 0,2469,0,1,0,1,0,1,0,0,0,1,0,0,0,2473,
scooby_state_4033b5|3|-1 0,2471,0,0,0,0,0,1,0,0,0,0,0,0,0,2472,
scooby_state_4033b5|47|-1 0,2466,0,0,0,1,0,1,0,1,1,0,0,0,2,2472,
scooby_state_4033b5|59|-1 0,2465,0,0,1,1,0,2,1,0,0,0,0,0,1,2471,
scooby_state_4033b5|44|-1 0,2468,1,0,0,0,0,0,0,0,0,1,0,0,1,2471,
scooby_state_4033b5|27|-1 1,2467,0,0,1,0,0,0,0,0,0,1,0,0,0,2470,
scooby_state_4033b5|40|-1 1,2464,0,0,1,0,0,1,1,0,0,0,1,1,0,2470,
scooby_state_4033b5|13|-1 1,2465,0,1,0,0,0,0,0,0,0,1,1,0,0,2469,
scooby_state_4033b5|14|-1 2,2465,0,0,0,0,0,0,0,0,0,0,1,0,1,2469,
scooby_state_4033b5|9|-1 0,2466,2,0,0,0,1,0,0,0,0,0,0,0,0,2469,
scooby_state_4033b5|33|-1 0,2465,0,0,0,0,0,0,0,1,1,0,2,0,0,2469,
scooby_state_4033b5|24|-1 0,2466,0,0,2,0,0,1,0,0,0,0,0,0,0,2469,
scooby_state_4033b5|34|-1 1,2462,0,0,0,0,0,0,0,0,1,1,1,1,1,2468,
scooby_state_4033b5|60|-1 1,2463,0,0,1,1,0,2,0,0,0,0,0,0,0,2468,
scooby_state_4033b5|41|-1 0,2467,0,0,1,0,0,0,0,0,0,0,0,0,0,2468,
scooby_state_4033b5|16|-1 0,2464,1,0,0,0,0,0,0,0,0,2,0,0,0,2467,
scooby_state_4033b5|58|-1 1,2460,0,1,0,1,0,0,1,1,0,2,0,0,0,2467,
scooby_state_4033b5|50|-1 0,2461,1,1,0,1,0,0,1,0,0,1,1,0,0,2467,
scooby_state_4033b5|48|-1 0,2464,1,2,0,0,0,0,0,0,0,0,0,0,0,2467,
scooby_state_4033b5|30|-1 3,2462,0,0,0,0,0,0,0,0,1,1,0,0,0,2467,
scooby_state_4033b5|35|-1 2,2461,0,0,0,0,0,0,2,0,0,0,1,0,0,2466,
scooby_state_4033b5|20|-1 1,2463,0,0,0,0,0,1,0,0,0,1,0,0,0,2466,
scooby_state_4033b5|32|-1 0,2461,1,1,0,0,1,1,0,0,0,0,0,0,1,2466,
scooby_state_4033b5|1|-1 1,2459,0,1,0,0,1,0,2,0,1,0,0,1,0,2466,
scooby_state_4033b5|31|-1 1,2459,0,1,0,0,1,1,0,0,1,1,0,0,1,2466,
scooby_state_4033b5|22|-1 1,2458,0,1,0,0,0,0,2,0,1,0,1,1,0,2465,
scooby_state_4033b5|10|-1 0,2458,1,1,0,0,1,0,1,0,1,0,1,0,0,2464,
scooby_state_4033b5|53|-1 0,2458,0,0,1,0,0,0,0,1,1,1,0,0,1,2463,
scooby_state_4033b5|6|-1 0,2459,0,0,0,0,1,0,0,0,1,0,0,0,1,2462,
scooby_state_4033b5|46|-1 0,2459,0,0,0,0,0,1,1,0,0,0,0,0,0,2461,
scooby_state_4033b5|37|-1 1,2460,0,0,0,0,0,0,0,0,0,0,0,0,0,2461,
scooby_state_4033b5|19|-1 1,2456,0,1,0,0,0,0,0,0,0,0,0,0,0,2458,
scooby_state_4033b9|26|0 0,0,0,2,2,4,0,3,1,1,1,0,2,0,2442,2458,
scooby_state_4033b5|25|-1 0,2453,0,0,0,0,2,0,0,0,0,0,0,1,0,2456,
scooby_state_4033b5|61|-1 0,2454,0,0,0,0,0,0,1,0,0,1,0,0,0,2456,
scooby_state_4033b5|57|-1 1,2453,0,0,0,0,0,0,1,0,0,0,0,0,0,2455,
scooby_state_4033b5|54|-1 1,2451,0,0,0,0,0,0,0,1,1,0,0,0,0,2454,
scooby_state_4033b5|26|-1 0,2450,0,0,2,0,0,1,0,0,0,1,0,0,0,2454,
scooby_state_4033b5|39|-1 1,2451,0,0,0,0,0,0,0,2,0,0,0,0,0,2454,
scooby_state_4033b5|5|-1 0,2444,0,0,0,0,1,0,1,1,0,1,0,2,0,2450,
scooby_state_4033b5|17|-1 0,2442,1,1,1,0,1,0,1,1,0,1,1,0,0,2450,
scooby_state_4033b5|36|-1 0,2442,1,0,0,1,0,0,0,2,1,0,0,0,0,2447,
scooby_state_4033b5|55|-1 0,2443,1,0,0,1,0,1,0,0,0,0,0,0,0,2446,
scooby_state_4033b5|23|-1 0,2439,0,0,1,0,0,0,0,0,0,0,1,0,2,2443,
scooby_state_4033b5|2|-1 3,2435,1,0,1,1,0,0,1,0,0,0,0,0,0,2442,
scooby_state_4033b5|42|-1 0,2435,1,0,0,0,1,0,0,1,1,0,0,0,0,2439,
scooby_state_4033b9|8|0 0,1,0,0,1,1,1,2,0,0,0,0,3,0,2366,2375,
scooby_state_4033b9|15|0 2,3,1,0,0,0,0,3,2,0,0,1,0,4,2351,2367,
scooby_state_4033b5|0|-1 1,2361,0,0,0,0,0,0,0,0,1,0,0,1,0,2364,
scooby_state_4033b9|12|0 2,2,1,1,1,1,0,2,1,1,0,0,2,0,2320,2334,
scooby_state_4033b9|13|0 2,1,0,1,0,0,0,0,1,0,0,0,1,0,2314,2320,
scooby_state_4033b9|21|0 0,1,0,0,0,1,1,1,3,0,2,0,1,0,2245,2255,
scooby_state_4033b9|9|0 0,1,1,2,1,0,0,0,0,1,0,1,0,0,2144,2151,
scooby_state_4033b9|18|0 0,0,0,0,1,1,0,0,0,1,0,1,2,0,2116,2122,
scooby_state_4033b9|5|0 0,1,0,0,1,1,0,1,0,1,0,0,2,2,2081,2090,
scooby_state_4033b9|10|0 2,3,0,0,1,0,1,1,0,0,0,1,1,0,2073,2083,
scooby_state_4033b9|3|0 0,1,0,0,1,0,0,0,2,1,0,0,0,1,1915,1921,
scooby_state_4033b9|7|0 0,1,0,0,1,0,1,1,1,0,0,0,0,1,1847,1853,
scooby_state_4033b9|27|-5 2,10,2,0,0,0,0,1,0,2,0,0,1,2,1683,1703,
scooby_state_4033b9|41|-5 1,3,0,0,1,0,2,1,1,1,1,1,1,0,1671,1684,
scooby_state_4033b9|44|-5 0,7,0,0,1,1,0,1,1,0,0,3,0,0,1644,1658,
scooby_state_4033b9|2|0 0,1,0,0,0,0,0,0,0,0,0,1,1,1,1651,1655,
scooby_state_4033b9|49|-5 1,4,2,2,1,0,1,0,0,0,0,1,1,1,1615,1629,
scooby_state_4033b9|44|-3 0,0,0,1,0,4,1,1,0,1,0,1,3,0,1596,1608,
scooby_state_4033b9|31|-5 1,6,2,0,2,3,2,2,0,0,2,0,2,1,1580,1603,
scooby_state_4033b9|39|-5 0,5,0,1,1,1,1,0,0,2,2,0,0,0,1572,1585,
scooby_state_4033b9|58|-5 0,4,0,0,2,0,1,0,0,1,1,1,2,2,1568,1582,
scooby_state_4033b9|5|-5 0,2,0,0,2,0,0,1,1,0,1,1,0,1,1571,1580,
scooby_state_4033b9|52|-3 2,1,0,2,2,2,3,1,1,1,1,3,1,3,1549,1572,
scooby_state_4033b9|36|-5 1,7,1,0,1,1,0,0,0,1,2,2,3,1,1545,1565,
scooby_state_4033b9|40|-5 3,4,1,0,1,1,4,2,0,1,0,0,1,0,1533,1551,
scooby_state_4033b9|18|-5 0,5,2,0,1,0,0,2,1,0,0,3,0,1,1532,1547,
scooby_state_4033b9|2|-3 1,0,3,0,1,1,0,0,0,0,0,0,0,1,1534,1541,
scooby_state_4033b9|38|-5 1,5,2,3,0,1,0,0,0,2,0,2,0,2,1521,1539,
scooby_state_4033b9|52|-5 2,8,0,0,0,0,0,0,2,0,1,0,2,2,1520,1537,
scooby_state_4033b9|28|-5 0,5,1,1,3,3,1,1,1,0,0,0,0,1,1518,1535,
scooby_state_4033b9|2|-5 1,6,0,3,2,2,0,0,0,0,1,0,1,0,1516,1532,
scooby_state_4033b9|3|-8 0,0,3,0,1,0,1,2,2,1,0,3,0,1,1512,1526,
scooby_state_4033b9|57|-5 1,6,2,0,3,1,1,0,0,0,0,1,2,0,1509,1526,
scooby_state_4033b9|40|-3 2,0,1,3,2,0,0,1,2,1,0,0,2,0,1510,1524,
scooby_state_4033b9|42|-5 2,5,0,0,1,0,2,1,1,0,0,1,3,1,1488,1505,
scooby_state_4033b9|8|-5 0,11,1,1,0,2,0,0,1,0,2,0,0,5,1476,1499,
scooby_state_4033b9|56|-3 2,0,0,0,1,1,1,1,1,1,1,1,1,0,1476,1487,
scooby_state_4033b9|4|-5 1,6,1,0,1,0,0,0,0,1,0,3,0,2,1466,1481,
scooby_state_4033b9|26|-8 0,2,3,1,2,3,2,1,2,0,0,1,1,1,1461,1480,
scooby_state_4033b9|26|-5 1,6,2,0,1,0,0,1,1,0,2,2,2,0,1454,1472,
scooby_state_4033b9|34|-5 0,7,1,0,1,1,0,0,1,0,1,0,2,1,1441,1456,
scooby_state_4033b9|0|-3 1,1,2,1,0,2,0,0,0,0,1,0,1,1,1428,1438,
scooby_state_4033b9|13|-5 0,2,2,1,2,1,1,0,1,1,1,2,2,1,1412,1429,
scooby_state_4033b9|37|-3 1,1,2,1,2,0,2,0,2,0,0,1,0,0,1417,1429,
scooby_state_4033b9|55|-5 0,6,0,1,1,1,0,2,0,1,1,0,2,0,1414,1429,
scooby_state_4033b9|10|-5 2,4,0,0,1,2,3,0,0,0,0,0,2,0,1414,1428,
scooby_state_4033b9|44|-8 2,1,1,3,1,1,1,1,2,2,0,2,2,3,1404,1426,
scooby_state_4033b9|38|-3 2,1,1,0,0,0,0,0,1,1,0,0,2,1,1417,1426,
scooby_state_4033b9|35|-5 2,4,4,0,2,1,0,2,1,0,3,2,0,1,1399,1421,
scooby_state_4033b9|0|-5 3,2,1,0,1,3,1,0,1,0,0,0,1,2,1403,1418,
scooby_state_4033b9|21|-5 0,3,2,0,4,0,0,2,1,1,0,4,2,1,1384,1404,
scooby_state_4033b9|54|-3 1,0,0,0,0,0,2,0,1,0,1,2,3,1,1382,1393,
scooby_state_4033b9|32|-3 2,1,2,1,1,0,1,2,0,0,0,3,1,0,1378,1392,
scooby_state_4033b9|46|-5 0,4,0,0,1,0,0,1,1,1,1,1,0,1,1377,1388,
scooby_state_4033b9|49|-3 2,2,2,1,1,1,2,1,0,0,0,1,2,0,1370,1385,
scooby_state_4033b9|36|-3 0,0,1,0,0,1,2,0,0,2,0,1,0,0,1373,1380,
scooby_state_4033b9|16|-5 0,2,3,0,4,2,2,0,1,3,0,1,1,2,1357,1378,
scooby_state_4033b9|43|-3 0,1,2,0,2,1,2,1,0,0,3,0,0,1,1365,1378,
scooby_state_4033b9|0|-8 3,1,1,1,1,2,1,0,0,1,2,2,0,1,1362,1378,
scooby_state_4033b9|41|-3 1,0,1,0,1,1,0,0,0,1,1,0,3,0,1367,1376,
scooby_state_4033b9|24|-3 0,0,0,1,0,2,1,1,0,1,0,0,1,0,1367,1374,
scooby_state_4033b9|43|-5 1,9,2,2,2,1,1,0,0,0,0,1,1,1,1350,1371,
scooby_state_4033b9|1|0 1,2,0,0,0,0,0,0,0,0,0,0,1,2,1363,1369,
scooby_state_4033b9|14|-5 0,3,0,0,1,0,1,1,1,1,0,1,0,2,1351,1362,
scooby_state_4033b9|14|-3 1,1,1,0,0,2,1,1,1,0,0,1,2,1,1350,1362,
scooby_state_4033b9|39|-8 0,1,1,1,0,0,0,0,3,1,0,0,1,0,1344,1352,
scooby_state_4033b9|53|-5 0,5,3,0,0,0,0,1,0,0,0,0,0,0,1332,1341,
scooby_state_4033b9|27|-8 1,1,0,0,2,3,1,0,0,0,0,0,3,0,1328,1339,
scooby_state_4033b9|48|-13 0,0,2,0,1,0,1,1,2,1,2,1,3,2,1321,1337,
scooby_state_4033b9|18|-8 1,2,0,0,1,2,1,1,0,0,0,0,1,2,1322,1333,
scooby_state_4033b9|32|-8 2,1,0,1,1,0,0,0,1,1,0,1,2,1,1318,1329,
scooby_state_4033b9|25|-5 0,1,3,2,1,0,0,0,0,1,0,1,1,2,1316,1328,
scooby_state_4033b9|51|-5 1,8,0,1,2,0,0,1,0,1,1,3,0,0,1310,1328,
scooby_state_4033b9|28|-8 2,3,1,2,1,2,0,1,3,1,0,1,1,0,1306,1324,
scooby_state_4033b9|47|-5 0,2,1,2,2,2,0,1,0,1,1,2,1,2,1299,1316,
scooby_state_4033b9|23|-3 0,1,3,2,1,3,1,3,2,0,1,0,1,2,1289,1309,
scooby_state_4033b9|46|-8 2,2,1,0,1,1,1,1,3,0,3,2,5,4,1278,1304,
scooby_state_4033b9|9|-5 1,6,2,1,0,1,0,1,0,0,2,3,0,2,1284,1303,
scooby_state_4033b9|55|-3 1,0,0,1,0,1,2,0,0,1,0,1,0,0,1294,1301,
scooby_state_4033b9|30|-3 1,0,1,2,1,1,0,0,0,1,0,1,1,0,1288,1297,
scooby_state_4033b9|23|-5 3,5,0,1,0,2,0,0,0,2,0,1,1,1,1281,1297,
scooby_state_4033b9|9|-3 1,0,1,0,0,1,0,0,0,0,0,0,1,0,1287,1291,
scooby_state_4033b9|5|-3 0,1,1,0,2,1,1,3,0,1,0,0,2,0,1279,1291,
scooby_state_4033b9|29|-5 1,5,0,1,0,1,1,1,0,1,0,1,2,1,1273,1288,
scooby_state_4033b9|46|-3 1,0,1,0,1,0,2,1,0,1,2,0,3,1,1274,1287,
scooby_state_4033b9|51|-8 2,0,0,1,1,2,0,0,0,2,1,1,0,2,1273,1285,
scooby_state_4033b9|36|-8 0,1,0,0,0,0,1,2,2,0,0,2,3,0,1273,1284,
scooby_state_4033b9|55|-8 0,0,2,2,1,0,1,1,1,1,1,3,2,1,1268,1284,
scooby_state_4033b9|45|-5 0,3,2,1,3,0,0,0,0,0,2,1,2,0,1269,1283,
scooby_state_4033b9|53|-8 3,1,4,0,1,1,2,2,0,0,0,0,0,0,1267,1281,
scooby_state_4033b9|37|-5 0,6,1,0,1,0,1,1,1,0,1,1,0,1,1257,1271,
scooby_state_4033b9|28|-3 0,0,0,1,1,1,0,0,2,1,1,0,1,3,1250,1261,
scooby_state_4033b9|60|-3 0,1,0,0,0,0,0,1,0,0,1,0,2,2,1245,1252,
scooby_state_4033b9|21|-3 0,1,1,0,2,0,0,0,1,1,0,1,0,2,1243,1252,
scooby_state_4033b9|21|-8 1,0,0,1,0,2,0,1,3,1,0,2,3,1,1234,1249,
scooby_state_4033b9|49|-8 0,0,4,0,2,0,0,0,0,1,1,0,2,1,1230,1241,
scooby_state_4033b9|22|-5 1,5,2,2,1,0,1,0,0,1,0,1,2,3,1217,1236,
scooby_state_4033b9|48|-8 0,2,2,1,0,0,0,0,2,0,0,0,0,2,1225,1234,
scooby_state_4033b9|45|-3 0,1,3,1,0,0,1,1,0,0,0,0,2,1,1222,1232,
scooby_state_4033b9|11|-3 0,0,1,0,0,2,1,1,0,1,0,0,0,1,1224,1231,
scooby_state_4033b9|33|-5 0,5,1,1,1,0,0,0,1,0,1,2,0,3,1208,1223,
scooby_state_4033b9|13|-3 0,1,2,1,0,1,1,1,1,1,1,0,1,1,1211,1223,
scooby_state_4033b9|35|-8 0,1,0,2,2,4,1,0,1,0,1,0,0,3,1208,1223,
scooby_state_4033b9|30|-5 1,5,1,1,1,0,0,1,0,0,1,1,0,2,1207,1221,
scooby_state_4033b9|25|-8 1,2,1,0,1,1,1,0,0,1,0,1,1,2,1199,1211,
scooby_state_4033b9|55|-2 0,0,2,1,0,0,0,1,2,1,0,2,0,2,1190,1201,
scooby_state_4033b9|2|-8 2,0,2,2,2,3,0,1,2,0,0,1,2,1,1175,1193,
scooby_state_4033b9|56|-5 1,6,0,2,0,0,0,0,0,2,0,1,0,0,1179,1191,
scooby_state_4033b9|32|-5 0,9,0,0,2,0,0,1,1,1,0,3,0,0,1172,1189,
scooby_state_4033b9|3|-5 1,4,0,1,0,0,0,0,0,1,0,0,1,2,1179,1189,
scooby_state_4033b9|9|-8 1,0,1,1,0,0,1,1,1,2,0,0,0,2,1175,1185,
scooby_state_4033b9|42|-8 0,1,0,0,1,0,1,0,2,1,2,2,2,0,1164,1176,
scooby_state_4033b9|15|-8 1,1,1,0,1,1,1,0,1,1,6,4,1,3,1154,1176,
scooby_state_4033b9|8|-8 1,1,0,4,1,1,1,0,1,1,1,2,0,2,1155,1171,
scooby_state_4033b9|52|-8 0,3,1,3,0,1,0,1,0,0,2,2,3,0,1155,1171,
scooby_state_4033b9|6|-3 3,1,2,1,0,1,2,1,0,0,0,1,2,3,1152,1169,
scooby_state_4033b9|23|-8 1,0,0,1,1,1,1,0,2,1,0,2,2,1,1156,1169,
scooby_state_4033b9|57|-3 1,3,0,0,1,0,0,1,1,1,1,2,4,0,1146,1161,
scooby_state_4033b9|54|-5 1,8,2,0,1,1,1,0,0,1,1,1,0,0,1138,1155,
scooby_state_4033b9|35|-3 0,1,0,2,0,3,1,0,1,1,0,2,1,1,1139,1152,
scooby_state_4033b9|40|-8 1,0,0,1,3,1,0,0,1,1,0,3,2,3,1136,1152,
scooby_state_4033b9|59|-3 0,2,2,1,2,0,0,0,1,1,0,0,1,0,1141,1151,
scooby_state_4033b9|3|-3 3,2,0,0,0,1,1,1,2,2,0,0,3,2,1126,1143,
scooby_state_4033b9|5|-8 0,0,0,0,0,1,3,1,0,1,0,1,1,1,1130,1139,
scooby_state_4033b9|27|-2 1,3,0,2,1,1,0,1,1,1,0,0,1,1,1126,1139,
scooby_state_4033b9|7|-3 0,0,1,2,0,2,2,2,1,0,0,0,1,2,1119,1132,
scooby_state_4033b9|6|-5 1,2,0,1,2,0,0,0,1,1,0,1,0,0,1122,1131,
scooby_state_4033b9|31|-3 2,1,0,1,0,2,1,3,0,0,1,2,1,1,1115,1130,
scooby_state_4033b9|27|-3 0,1,1,0,0,1,1,1,0,2,1,0,0,1,1113,1122,
scooby_state_4033b9|33|-8 0,0,2,2,1,1,0,1,1,1,0,3,2,1,1103,1118,
scooby_state_4033b9|15|-5 0,2,1,0,0,1,1,1,0,2,1,0,0,0,1109,1118,
scooby_state_4033b9|50|-5 1,3,0,0,0,0,0,0,1,0,0,1,1,0,1105,1112,
scooby_state_4033b9|17|-10 0,0,1,0,2,2,0,1,1,0,1,3,3,0,1097,1111,
scooby_state_4033b9|4|-8 1,0,0,0,0,0,0,0,0,0,1,2,0,3,1102,1109,
scooby_state_4033b9|43|-8 3,2,1,2,3,0,2,3,0,1,1,0,2,4,1081,1105,
scooby_state_4033b9|19|-5 0,4,0,1,2,0,0,2,0,1,0,0,0,3,1092,1105,
scooby_state_4033b9|10|-3 0,0,1,1,0,0,0,0,1,0,1,0,2,0,1089,1095,
scooby_state_4033b9|29|-3 0,0,1,1,0,0,0,0,0,0,0,3,2,0,1084,1091,
scooby_state_4033b9|58|-3 1,0,1,0,2,1,0,0,0,0,2,1,2,1,1076,1087,
scooby_state_4033b9|2|-6 1,1,0,0,0,0,2,0,0,0,0,0,1,2,1079,1086,
scooby_state_4033b9|41|-8 0,0,2,0,0,2,0,0,0,1,1,1,0,1,1077,1085,
scooby_state_4033b9|38|-8 0,0,0,1,0,3,0,1,1,1,0,0,2,2,1073,1084,
scooby_state_4033b9|17|-5 0,4,1,0,3,1,1,1,0,1,0,0,0,1,1070,1083,
scooby_state_4033b9|11|-5 2,1,0,1,2,0,0,1,0,0,0,0,2,1,1069,1079,
scooby_state_4033b9|6|-8 1,3,0,0,0,0,1,1,0,0,1,2,1,0,1068,1078,
scooby_state_4033b9|48|-3 0,0,0,1,1,1,1,3,1,0,1,1,3,0,1065,1078,
scooby_state_4033b9|53|-3 1,0,3,1,0,1,0,0,1,1,0,0,0,1,1067,1076,
scooby_state_4033b9|19|-8 1,1,1,1,2,0,0,1,0,1,0,0,0,2,1066,1076,
scooby_state_4033b9|41|-13 1,0,3,0,0,1,4,1,1,1,0,3,3,3,1049,1070,
scooby_state_4033b9|34|-8 0,0,0,1,2,2,0,0,0,0,1,2,1,0,1057,1066,
scooby_state_4033b9|50|-3 1,0,2,1,1,1,0,0,1,0,1,0,1,0,1055,1064,
scooby_state_4033b9|42|-3 2,0,1,0,0,1,0,1,1,1,0,0,0,0,1056,1063,
scooby_state_4033b9|46|-2 0,2,2,1,0,1,1,1,0,1,0,0,0,4,1050,1063,
scooby_state_4033b9|51|-3 1,1,0,2,1,1,1,0,0,0,0,1,2,0,1053,1063,
scooby_state_4033b9|47|-8 3,1,0,0,0,1,0,0,1,2,1,0,2,1,1047,1059,
scooby_state_4033b9|15|-3 0,1,0,0,0,3,0,0,0,2,0,2,0,0,1048,1056,
scooby_state_4033b9|33|-3 0,0,0,1,0,0,0,0,0,0,2,0,0,2,1048,1053,
scooby_state_4033b9|4|-3 1,0,1,0,0,2,0,0,0,1,1,0,2,0,1044,1052,
scooby_state_4033b9|8|-3 0,1,1,1,0,3,0,1,0,1,0,0,3,0,1040,1051,
scooby_state_4033b9|1|-3 0,2,0,1,0,0,0,1,1,0,0,0,1,1,1044,1051,
scooby_state_4033b9|26|-3 1,2,0,0,1,3,2,1,3,0,1,0,3,1,1030,1048,
scooby_state_4033b9|19|-3 1,1,0,1,0,1,1,2,0,0,0,0,0,0,1040,1047,
scooby_state_4033b9|3|-2 0,0,1,2,1,1,0,1,0,1,0,2,0,3,1035,1047,
scooby_state_4033b9|45|-8 1,0,2,1,0,0,1,0,1,0,2,1,1,1,1036,1047,
scooby_state_4033b9|31|-8 2,2,0,0,1,2,1,0,0,1,0,2,3,0,1032,1046,
scooby_state_4033b9|13|-8 2,1,1,1,0,0,1,1,3,2,1,2,2,0,1029,1046,
scooby_state_4033b9|45|-10 1,1,1,1,1,0,1,1,2,0,0,2,4,4,1026,1045,
scooby_state_4033b9|5|-2 2,1,2,0,0,0,1,1,0,0,0,0,0,1,1032,1040,
scooby_state_4033b9|45|-7 1025,3,0,1,2,0,1,0,1,0,0,0,0,0,0,1033,
scooby_state_4033b9|1|-5 2,4,2,0,0,1,0,0,2,0,0,1,0,1,1020,1033,
scooby_state_4033b9|20|-8 0,1,0,0,1,1,1,0,0,0,1,0,1,1,1023,1030,
scooby_state_4033b9|24|-5 0,4,2,1,0,0,1,0,0,0,0,0,2,2,1017,1029,
scooby_state_4033b9|29|-13 1,1,2,1,1,0,0,0,0,1,1,1,3,0,1016,1028,
scooby_state_4033b9|22|-8 0,0,0,1,3,1,1,0,2,0,0,0,2,0,1015,1025,
scooby_state_4033b9|49|-13 0,4,0,0,0,0,1,1,0,0,0,1,2,0,1013,1022,
scooby_state_4033b9|31|-13 0,1,2,0,1,0,0,1,2,0,1,2,3,3,1005,1021,
scooby_state_4033b9|4|-10 1,1,1,0,0,1,1,0,1,0,0,2,3,0,1006,1017,
scooby_state_4033b9|46|-10 2,0,1,3,0,0,2,2,1,1,2,3,2,1,995,1015,
scooby_state_4033b9|0|-13 1,3,0,4,2,1,5,1,0,0,1,1,4,0,990,1013,
scooby_state_4033b9|17|-3 0,0,0,0,0,2,0,1,1,1,1,2,1,0,1002,1011,
scooby_state_4033b9|20|-3 0,0,2,2,0,4,0,2,0,0,0,0,2,0,997,1009,
scooby_state_4033b9|34|-3 1,0,1,0,2,2,0,0,0,1,0,1,4,0,994,1006,
scooby_state_4033b9|17|-8 0,0,0,1,0,1,0,0,0,0,2,5,1,1,993,1004,
scooby_state_4033b9|15|-13 2,0,2,0,1,0,0,3,2,1,1,1,5,0,982,1000,
scooby_state_4033b9|18|-6 1,0,1,1,1,0,0,0,1,1,0,0,0,1,993,1000,
scooby_state_4033b9|4|-13 0,1,1,0,0,1,2,0,0,0,0,2,1,2,986,996,
scooby_state_4033b9|2|-2 0,2,2,0,1,1,2,0,1,1,0,1,1,0,983,995,
scooby_state_4033b9|30|-8 0,0,0,0,0,0,1,1,0,1,0,0,0,1,990,994,
scooby_state_4033b9|10|-8 1,0,1,2,0,0,1,0,1,2,0,1,2,1,979,991,
scooby_state_4033b9|7|-8 1,0,1,2,2,1,1,0,0,0,0,1,1,0,978,988,
scooby_state_4033b9|40|-6 1,0,1,0,1,0,0,0,0,1,0,2,1,0,980,987,
scooby_state_4033b9|14|-8 0,0,0,0,3,1,0,0,0,0,0,0,0,2,980,986,
scooby_state_4033b9|41|-2 0,1,0,0,0,1,1,2,2,1,2,0,0,3,968,981,
scooby_state_4033b9|31|-7 970,1,2,2,2,1,2,0,1,0,0,0,0,0,0,981,
scooby_state_4033b9|39|-3 0,1,1,2,0,2,0,0,1,1,1,1,0,0,969,979,
scooby_state_4033b9|47|-3 0,1,0,0,0,0,0,1,0,0,1,3,2,1,969,978,
scooby_state_4033b9|44|-7 968,1,0,2,2,2,1,0,0,0,0,0,0,0,0,976,
scooby_state_4033b9|37|-8 0,0,0,0,1,1,1,1,0,0,2,2,1,1,963,973,
scooby_state_4033b9|50|-2 0,1,0,2,1,0,1,1,0,0,0,2,2,1,962,973,
scooby_state_4033b9|6|-10 1,1,0,0,0,0,0,1,0,1,0,3,7,0,958,972,
scooby_state_4033b9|34|-13 1,1,0,0,2,0,5,2,1,1,1,1,6,2,946,969,
scooby_state_4033b9|48|-5 0,6,0,0,1,0,0,2,0,1,0,2,0,0,956,968,
scooby_state_4033b9|42|-10 1,1,1,0,0,0,1,0,0,1,0,0,0,0,961,966,
scooby_state_4033b9|11|-8 0,1,1,0,0,0,0,0,1,1,1,0,0,1,958,964,
scooby_state_4033b9|18|-13 1,2,2,0,1,0,3,4,0,2,1,1,5,1,939,962,
scooby_state_4033b9|36|-7 951,1,1,0,3,2,1,1,0,1,0,0,1,0,0,962,
scooby_state_4033b9|9|-2 0,1,0,1,1,0,0,1,0,0,0,0,1,1,950,956,
scooby_state_4033b9|6|-13 1,0,0,1,1,0,2,2,0,2,0,1,1,0,943,954,
scooby_state_4033b9|1|-8 0,0,0,1,0,0,0,1,0,2,0,1,1,0,942,948,
scooby_state_4033b9|14|-13 1,0,0,0,0,0,1,0,1,1,1,0,4,0,937,946,
scooby_state_4033b9|54|-8 0,1,0,2,1,0,3,2,1,0,0,3,1,1,930,945,
scooby_state_4033b9|20|-5 0,3,0,0,1,0,1,0,1,0,0,0,1,1,937,945,
scooby_state_4033b9|18|-3 0,0,0,0,0,1,1,2,0,0,0,0,0,0,939,943,
scooby_state_4033b9|32|-4 0,0,0,0,0,1,0,1,1,0,0,0,3,3,933,942,
scooby_state_4033b9|22|-3 1,1,0,0,1,1,0,0,1,1,0,0,0,0,935,941,
scooby_state_4033b9|42|-13 0,1,0,0,0,0,0,0,0,2,0,1,1,0,936,941,
scooby_state_4033b9|24|-8 1,1,1,0,2,1,1,0,1,1,0,0,2,0,929,940,
scooby_state_4033b9|29|-8 0,0,1,0,0,1,0,0,0,0,1,2,1,2,930,938,
scooby_state_4033b9|16|-3 1,0,4,1,2,1,0,0,0,2,0,0,0,1,925,937,
scooby_state_4033b9|33|-2 0,1,2,1,0,1,0,0,0,0,0,0,0,0,932,937,
scooby_state_4033b9|50|-13 0,1,1,0,0,3,0,1,1,1,0,0,3,1,922,934,
scooby_state_4033b9|16|-10 1,0,2,3,0,3,1,2,0,0,0,2,4,3,912,933,
scooby_state_4033b9|34|-10 2,0,1,0,2,1,3,0,1,0,0,1,2,1,919,933,
scooby_state_4033b9|47|-13 0,1,1,1,0,1,0,2,1,2,1,0,3,0,916,929,
scooby_state_4033b9|5|-10 0,0,1,0,3,1,3,1,1,1,0,0,1,3,912,927,
scooby_state_4033b9|47|-2 2,0,0,1,0,0,2,1,0,1,0,1,0,0,913,921,
scooby_state_4033b9|27|-13 1,1,0,1,1,1,0,0,1,0,1,1,4,0,903,915,
scooby_state_4033b9|21|-6 0,1,0,0,1,0,1,1,1,1,0,0,0,0,909,915,
scooby_state_4033b9|21|-2 2,2,3,0,0,0,0,1,0,0,0,0,1,1,905,915,
scooby_state_4033b9|44|-13 0,0,1,0,2,2,2,0,1,0,1,0,1,1,903,914,
scooby_state_4033b9|22|-2 1,0,0,0,1,1,1,2,0,0,0,0,3,1,903,913,
scooby_state_4033b9|11|-10 1,0,0,1,0,1,1,1,0,0,2,0,1,0,905,913,
scooby_state_4033b9|12|-8 1,1,0,1,0,0,1,2,1,1,0,1,1,1,902,913,
scooby_state_4033b9|35|-13 0,0,0,1,0,2,0,0,1,0,1,0,2,1,902,910,
scooby_state_4033b9|2|-13 1,1,0,0,0,1,0,0,0,0,0,2,4,0,900,909,
scooby_state_4033b9|34|-6 0,0,0,1,0,0,0,0,0,1,1,2,0,0,902,907,
scooby_state_4033b9|60|-2 0,2,0,0,0,0,0,0,1,0,0,1,1,1,901,907,
scooby_state_4033b9|51|-6 1,2,0,5,1,0,1,0,0,0,2,1,1,1,889,904,
scooby_state_4033b9|12|-3 2,0,0,0,1,0,1,0,0,0,1,1,2,0,894,902,
scooby_state_4033b9|46|-13 3,5,2,0,0,1,0,2,0,2,1,1,1,2,882,902,
scooby_state_4033b9|12|-2 2,2,2,0,1,0,0,0,0,1,0,0,1,0,892,901,
scooby_state_4033b9|28|-2 0,1,0,0,0,0,0,0,0,0,1,0,0,0,898,900,
scooby_state_4033b9|21|-10 0,0,0,0,2,1,0,2,2,1,0,0,0,1,890,899,
scooby_state_4033b9|34|-2 2,1,1,1,0,1,1,0,0,1,1,1,1,1,887,899,
scooby_state_4033b9|30|-10 1,0,1,0,2,0,4,1,0,0,1,1,3,4,881,899,
scooby_state_4033b9|1|-10 0,2,0,1,4,0,3,3,0,1,1,1,3,0,880,899,
scooby_state_4033b9|26|-2 0,2,1,1,0,1,1,1,0,1,1,1,1,2,884,897,
scooby_state_4033b9|9|-10 0,2,1,4,0,1,3,0,1,0,2,0,3,1,879,897,
scooby_state_4033b9|31|-2 1,4,4,0,0,1,0,1,1,0,0,0,0,0,885,897,
scooby_state_4033b9|43|-2 1,1,2,0,1,2,0,1,1,0,1,1,1,1,883,896,
scooby_state_4033b9|38|-10 0,0,0,0,0,0,0,0,0,0,0,1,1,1,892,895,
scooby_state_4033b9|3|-11 0,5,1,1,2,0,2,1,0,1,1,0,0,0,878,892,
scooby_state_4033b9|61|-2 0,2,0,1,1,2,0,1,0,0,0,1,2,0,882,892,
scooby_state_4033b9|44|-2 1,0,2,1,0,0,0,0,1,0,0,1,1,0,885,892,
scooby_state_4033b9|48|-6 3,0,0,0,1,0,1,1,0,1,1,0,0,2,882,892,
scooby_state_4033b9|35|-2 0,0,1,0,0,0,1,0,0,0,0,1,1,0,888,892,
scooby_state_4033b9|10|-13 0,3,0,0,0,0,2,1,1,0,1,0,2,2,878,890,
scooby_state_4033b9|43|-13 1,1,0,1,3,1,0,1,0,0,0,0,3,1,878,890,
scooby_state_4033b9|25|-2 2,1,1,1,1,1,1,2,0,0,1,0,0,0,879,890,
scooby_state_4033b9|23|-2 0,0,2,0,1,0,0,0,1,0,0,0,1,0,885,890,
scooby_state_4033b9|47|-7 879,0,0,0,3,3,2,0,0,0,0,0,1,0,0,888,
scooby_state_4033b9|0|-10 1,3,0,1,0,1,0,2,0,1,1,1,5,1,870,887,
scooby_state_4033b9|35|-10 0,1,0,1,1,0,1,0,2,3,1,1,3,3,868,885,
scooby_state_4033b9|3|-10 1,1,1,0,0,1,0,0,0,2,2,1,1,1,873,884,
scooby_state_4033b9|8|-2 0,2,0,0,1,0,2,1,1,0,0,0,1,1,875,884,
scooby_state_4033b9|22|-10 1,1,0,1,0,1,0,1,0,1,0,3,2,0,871,882,
scooby_state_4033b9|37|-6 0,0,0,0,1,1,1,1,0,0,1,0,1,2,873,881,
scooby_state_4033b9|4|-7 868,2,0,2,2,1,3,1,0,0,0,0,0,0,0,879,
scooby_state_4033b9|43|-1 0,1,0,1,1,1,0,2,0,1,1,0,0,2,869,879,
scooby_state_4033b9|50|-8 0,1,1,0,0,1,1,0,1,0,0,0,2,0,871,878,
scooby_state_4033b9|55|-7 861,2,1,3,1,3,4,1,0,1,0,0,0,1,0,878,
scooby_state_4033b9|12|-10 1,0,2,0,0,0,0,0,0,0,0,0,1,0,874,878,
scooby_state_4033b9|24|-13 1,1,0,1,0,1,1,1,1,0,1,3,1,2,863,877,
scooby_state_4033b9|49|-6 0,1,0,0,1,0,1,2,1,1,0,2,0,1,867,877,
scooby_state_4033b9|28|-13 0,1,2,2,0,0,1,0,0,1,0,0,1,1,867,876,
scooby_state_4033b9|14|-4 1,1,1,0,0,0,0,0,0,0,3,1,0,3,865,875,
scooby_state_4033b9|0|-4 0,0,2,0,0,0,1,0,0,1,1,0,1,1,865,872,
scooby_state_4033b9|52|-4 0,0,0,1,0,0,1,1,1,0,2,0,3,3,859,871,
scooby_state_4033b9|30|-2 1,2,0,0,0,0,1,1,0,0,2,1,1,0,862,871,
scooby_state_4033b9|35|-6 0,0,1,1,0,0,0,2,0,0,0,1,0,0,864,869,
scooby_state_4033b9|8|-13 1,0,1,0,0,0,1,0,1,0,2,2,1,2,857,868,
scooby_state_4033b9|43|-6 0,1,0,3,3,0,0,1,1,0,0,2,1,1,854,867,
scooby_state_4033b9|9|-13 0,1,1,1,0,0,0,0,0,1,0,1,2,3,856,866,
scooby_state_4033b9|59|-2 0,0,0,1,1,0,1,0,1,0,0,3,1,0,858,866,
scooby_state_4033b9|43|-7 857,2,1,0,1,2,1,0,0,0,0,0,0,0,0,864,
scooby_state_4033b9|58|-4 2,2,1,1,2,1,1,2,0,0,0,2,3,3,842,862,
scooby_state_4033b9|42|-7 849,3,1,0,3,1,1,1,1,0,0,0,0,0,1,861,
scooby_state_4033b9|21|-7 851,2,1,1,3,1,1,1,0,0,0,0,0,0,0,861,
scooby_state_4033b9|22|-13 1,0,0,3,2,1,1,1,1,2,1,1,1,1,842,858,
scooby_state_4033b9|18|-2 2,1,0,0,0,1,1,1,1,0,0,0,2,1,847,857,
scooby_state_4033b9|33|-13 0,1,1,0,0,0,2,0,2,0,1,0,7,0,843,857,
scooby_state_4033b9|45|-2 1,1,2,2,2,0,1,1,1,0,0,1,0,0,843,855,
scooby_state_4033b9|3|-13 1,2,0,2,2,3,1,0,2,1,0,0,0,0,841,855,
scooby_state_4033b9|56|-6 0,0,2,0,0,1,1,0,0,1,1,0,0,2,846,854,
scooby_state_4033b9|53|-2 3,2,2,0,2,0,0,0,1,0,0,0,1,0,843,854,
scooby_state_4033b9|7|-13 0,1,1,0,1,0,2,1,0,0,1,1,2,2,842,854,
scooby_state_4033b9|1|-2 0,2,2,2,0,1,0,1,0,1,1,2,1,0,841,854,
scooby_state_4033b9|27|-7 843,1,0,1,2,2,1,2,1,0,0,0,0,0,0,853,
scooby_state_4033b9|47|-10 0,1,0,0,1,1,0,1,1,0,1,0,1,0,844,851,
scooby_state_4033b9|16|-2 2,3,1,1,0,1,1,2,0,0,0,0,1,1,838,851,
scooby_state_4033b9|40|-10 1,0,0,2,1,1,0,2,1,0,1,1,2,0,839,851,
scooby_state_4033b9|43|-10 3,2,1,1,1,2,0,1,1,0,0,1,2,2,833,850,
scooby_state_4033b9|33|-10 0,0,1,1,1,1,0,2,0,1,2,0,1,0,840,850,
scooby_state_4033b9|3|-7 842,1,0,1,3,1,0,0,1,1,0,0,0,0,0,850,
scooby_state_4033b9|54|-7 840,2,0,1,3,0,1,0,1,0,0,0,0,0,0,848,
scooby_state_4033b9|13|-4 0,0,1,0,0,0,3,1,0,0,0,1,3,4,834,847,
scooby_state_4033b9|21|-13 0,1,0,1,0,1,1,2,1,1,0,0,3,2,831,844,
scooby_state_4033b9|45|-13 1,2,2,1,1,3,2,1,2,0,0,0,2,1,825,843,
scooby_state_4033b9|18|-10 1,0,0,1,1,2,0,1,0,0,0,0,1,0,835,842,
scooby_state_4033b9|19|-2 1,1,1,1,1,1,1,0,2,1,0,1,0,0,828,839,
scooby_state_4033b9|52|-2 0,0,1,0,0,1,0,0,1,0,0,1,1,0,833,838,
scooby_state_4033b9|49|-11 0,2,0,0,0,0,0,0,0,0,1,4,0,0,830,837,
scooby_state_4033b9|10|-2 1,0,0,0,0,2,1,0,1,0,0,4,2,2,821,834,
scooby_state_4033b9|40|-2 0,0,0,0,1,1,0,1,1,0,0,0,0,1,829,834,
scooby_state_4033b9|0|-2 0,0,1,0,0,0,0,3,0,1,0,0,2,0,827,834,
scooby_state_4033b9|38|-2 1,0,0,1,1,1,1,2,1,0,3,0,0,0,821,832,
scooby_state_4033b9|36|-13 0,1,0,0,0,1,1,1,2,2,1,1,3,2,816,831,
scooby_state_4033b9|45|-4 1,1,1,0,1,1,0,0,0,0,0,0,1,2,823,831,
scooby_state_4033b9|48|-10 0,2,1,1,0,0,0,1,0,0,1,0,1,3,819,829,
scooby_state_4033b9|54|-6 0,0,0,1,0,2,2,1,1,0,0,0,1,0,820,828,
scooby_state_4033b9|15|-7 821,0,1,2,0,0,0,1,1,1,0,0,0,0,1,828,
scooby_state_4033b9|53|-10 0,0,0,3,0,3,1,0,1,0,0,0,7,0,812,827,
scooby_state_4033b9|32|-13 0,0,1,1,0,1,0,1,0,0,0,0,2,1,819,826,
scooby_state_4033b9|28|-10 1,0,1,0,1,0,0,2,0,0,0,1,2,0,815,823,
scooby_state_4033b9|35|-11 0,3,1,1,4,1,1,0,0,0,0,1,0,0,811,823,
scooby_state_4033b9|42|-2 0,1,0,1,0,0,0,0,0,0,0,0,0,0,818,820,
scooby_state_4033b9|47|-6 0,1,0,2,1,0,0,1,0,0,0,0,2,0,813,820,
scooby_state_4033b9|23|-10 3,0,0,1,0,1,0,0,0,1,0,0,2,1,811,820,
scooby_state_4033b9|2|-10 0,1,0,0,2,1,1,2,0,0,0,0,4,2,804,817,
scooby_state_4033b9|58|-2 0,0,0,0,0,1,0,1,0,2,0,2,0,0,810,816,
scooby_state_4033b9|16|-7 810,0,0,1,1,2,0,0,1,0,0,0,0,0,0,815,
scooby_state_4033b9|15|-10 3,0,0,0,0,0,0,1,0,0,1,0,1,0,807,813,
scooby_state_4033b9|26|-7 808,0,1,0,1,1,1,0,0,0,0,0,0,0,0,812,
scooby_state_4033b9|56|-2 0,3,3,1,0,0,1,1,1,1,1,1,1,0,795,809,
scooby_state_4033b9|51|-10 2,0,0,1,0,0,2,1,1,0,0,0,4,3,793,807,
scooby_state_4033b9|21|-4 1,0,1,2,0,0,1,1,2,0,1,0,0,2,795,806,
scooby_state_4033b9|17|-7 800,1,1,1,1,0,1,0,0,0,0,0,0,0,0,805,
scooby_state_4033b9|34|-11 0,12,2,1,0,0,1,0,3,0,0,1,1,0,784,805,
scooby_state_4033b9|24|-10 0,0,1,0,1,1,0,1,0,0,1,1,0,0,796,802,
scooby_state_4033b9|1|-13 0,0,0,0,0,0,0,1,2,0,0,2,0,1,796,802,
scooby_state_4033b9|29|-7 789,1,1,2,3,0,0,1,1,0,0,0,0,0,0,798,
scooby_state_4033b9|10|-1 1,0,0,0,0,0,0,0,2,1,0,1,2,0,788,795,
scooby_state_4033b9|29|-6 0,1,1,1,0,1,0,1,0,0,3,2,0,1,783,794,
scooby_state_4033b9|14|-2 0,0,3,0,0,0,1,0,0,0,1,1,2,0,785,793,
scooby_state_4033b9|12|-5 1,1,0,0,0,0,0,0,1,0,0,1,2,0,786,792,
scooby_state_4033b9|5|-11 0,8,1,0,2,3,0,0,0,1,0,2,1,2,771,791,
scooby_state_4033b9|13|-13 2,1,0,0,0,2,0,0,0,2,1,1,1,2,778,790,
scooby_state_4033b9|0|-6 0,1,1,0,0,0,0,1,0,0,1,0,2,0,783,789,
scooby_state_4033b9|37|-2 0,2,1,1,1,1,2,0,1,0,0,0,2,0,778,789,
scooby_state_4033b9|7|-5 0,3,0,1,1,0,0,1,0,0,0,0,0,0,782,788,
scooby_state_4033b9|24|-2 0,0,0,0,0,3,1,0,0,1,1,1,1,0,779,787,
scooby_state_4033b9|11|-11 0,2,1,0,2,0,0,1,0,1,0,0,1,0,779,787,
scooby_state_4033b9|40|-13 1,0,0,1,0,2,0,3,0,1,1,1,1,0,775,786,
scooby_state_4033b9|49|-2 0,0,0,0,0,0,0,1,2,0,1,1,1,0,780,786,
scooby_state_4033b9|16|-8 1,0,0,0,1,0,1,0,1,0,2,0,1,2,776,785,
scooby_state_4033b9|11|-13 1,1,2,0,0,1,0,2,1,0,0,3,1,0,773,785,
scooby_state_4033b9|54|-4 1,0,1,0,0,1,0,1,0,2,0,0,5,4,769,784,
scooby_state_4033b9|44|-10 0,0,0,0,0,1,2,0,0,0,0,0,2,0,779,784,
scooby_state_4033b9|57|-2 1,1,1,2,1,2,0,0,0,0,0,0,1,0,769,778,
scooby_state_4033b9|4|-4 0,0,2,2,1,1,1,1,0,0,1,0,3,1,764,777,
scooby_state_4033b9|20|-13 0,0,1,1,0,1,1,1,0,0,0,0,0,0,770,775,
scooby_state_4033b9|38|-13 1,0,0,1,1,2,1,0,0,1,1,2,1,1,762,774,
scooby_state_4033b9|31|-1 0,2,0,1,0,2,0,0,1,0,0,3,0,1,762,772,
scooby_state_4033b9|32|-10 2,0,1,2,0,2,0,0,1,0,0,1,0,4,756,769,
scooby_state_4033b9|32|-6 0,0,0,1,0,0,0,0,1,0,0,0,1,1,765,769,
scooby_state_4033b9|39|-13 2,0,2,2,1,0,0,0,2,2,1,1,1,0,755,769,
scooby_state_4033b9|28|-7 760,2,1,0,1,0,1,0,1,0,0,0,1,0,0,767,
scooby_state_4033b9|49|-9 3,2,0,2,2,0,0,1,0,0,0,1,1,3,751,766,
scooby_state_4033b9|0|-18 1,2,2,1,2,0,3,1,0,1,0,2,1,0,749,765,
scooby_state_4033b9|39|-10 0,0,0,1,0,3,0,1,0,1,1,1,0,0,756,764,
scooby_state_4033b9|56|-7 757,2,1,0,1,1,0,1,1,0,0,0,0,0,0,764,
scooby_state_4033b9|27|-10 1,0,1,0,1,2,1,1,2,1,0,1,1,1,748,761,
scooby_state_4033b9|13|-7 752,1,2,1,2,1,1,0,0,0,0,0,0,0,0,760,
scooby_state_4033b9|2|-11 0,5,0,1,3,0,0,0,1,0,0,0,4,1,744,759,
scooby_state_4033b9|31|-6 0,0,0,2,0,0,0,0,0,1,0,1,0,0,754,758,
scooby_state_4033b9|20|-10 0,0,1,0,5,0,4,1,1,2,0,1,3,2,738,758,
scooby_state_4033b9|25|-3 0,0,0,1,0,1,2,1,1,1,0,0,2,0,748,757,
scooby_state_4033b9|5|-13 0,0,2,1,3,1,0,0,0,0,0,1,2,0,745,755,
scooby_state_4033b9|18|-4 0,2,0,1,0,0,4,0,1,0,0,2,2,3,740,755,
scooby_state_4033b9|19|-13 1,0,0,0,0,0,0,1,2,0,0,2,3,2,744,755,
scooby_state_4033b9|37|-7 744,0,1,1,2,1,1,1,0,1,0,1,0,0,0,753,
scooby_state_4033b9|30|-7 750,0,0,0,2,0,1,0,0,0,0,0,0,0,0,753,
scooby_state_4033b9|39|-6 0,0,0,0,2,1,1,1,0,0,0,1,1,2,743,752,
scooby_state_4033b9|47|-16 2,2,1,1,1,2,0,2,0,0,1,1,2,0,736,751,
scooby_state_4033b9|49|-4 0,0,1,0,0,0,1,0,0,0,0,1,1,1,746,751,
scooby_state_4033b9|19|-10 1,1,0,1,2,1,1,1,2,0,0,0,1,0,739,750,
scooby_state_4033b9|20|-6 4,1,2,2,0,1,2,3,0,2,1,1,1,1,728,749,
scooby_state_4033b9|41|-6 0,0,0,0,1,2,0,0,0,1,0,2,0,1,737,744,
scooby_state_4033b9|6|-7 731,1,1,2,1,3,2,0,1,0,0,0,0,0,0,742,
scooby_state_4033b9|22|-1 0,1,0,0,0,1,3,0,1,1,0,1,2,0,730,740,
scooby_state_4033b9|9|-6 1,1,0,0,0,1,0,0,2,0,1,0,0,0,734,740,
scooby_state_4033b9|12|-13 0,0,0,0,2,2,1,1,0,0,1,3,2,1,726,739,
scooby_state_4033b9|19|-6 1,1,1,0,0,2,1,0,0,1,1,0,0,0,729,737,
scooby_state_4033b9|28|-15 7,1,0,1,0,1,0,2,0,1,0,0,0,2,722,737,
scooby_state_4033b9|13|-10 0,1,1,1,4,1,2,0,1,0,1,1,2,3,718,736,
scooby_state_4033b9|33|-11 0,5,2,1,1,0,0,1,0,2,1,1,2,1,719,736,
scooby_state_4033b9|58|-1 2,1,0,1,3,1,0,1,0,2,0,1,0,1,721,734,
scooby_state_4033b9|34|-7 724,0,1,1,2,0,1,1,0,0,1,1,1,1,0,734,
scooby_state_4033b9|13|-2 1,0,0,0,0,0,0,0,1,1,1,1,1,2,725,733,
scooby_state_4033b9|31|-10 0,0,1,0,3,0,0,0,2,0,0,1,3,1,721,732,
scooby_state_4033b9|32|-2 0,4,0,0,0,1,0,0,0,1,0,0,2,0,723,731,
scooby_state_4033b9|26|-10 0,0,4,0,0,0,2,2,2,0,0,1,1,0,718,730,
scooby_state_4033b9|19|-16 0,1,1,0,0,0,1,1,0,1,1,1,2,2,719,730,
scooby_state_4033b9|7|-6 0,0,1,0,0,1,0,0,0,0,0,0,0,1,727,730,
scooby_state_4033b9|35|-7 723,0,1,0,2,0,1,0,0,0,1,1,0,0,0,729,
scooby_state_4033b9|41|-10 1,1,0,0,0,0,1,1,0,1,0,0,1,0,719,725,
scooby_state_4033b9|32|-7 717,0,0,2,0,1,0,1,1,0,0,0,0,0,0,722,
scooby_state_4033b9|45|-1 1,0,0,0,1,0,3,0,1,1,0,2,1,0,712,722,
scooby_state_4033b9|23|-11 1,4,0,1,3,0,0,1,2,0,0,0,0,1,708,721,
scooby_state_4033b9|46|-7 712,2,0,1,2,2,1,1,0,0,0,0,0,0,0,721,
scooby_state_4033b9|36|-10 1,2,2,0,1,2,0,0,2,0,1,1,1,0,705,718,
scooby_state_4033b9|11|-9 0,2,0,2,1,0,4,0,0,1,2,0,0,1,705,718,
scooby_state_4033b9|11|-7 708,1,2,0,1,0,0,2,0,1,1,0,0,0,1,717,
scooby_state_4033b9|30|-13 1,2,1,0,0,1,0,1,0,1,1,4,3,0,700,715,
scooby_state_4033b9|14|-10 1,1,0,1,1,0,1,1,0,0,1,0,2,0,705,714,
scooby_state_4033b9|20|-11 0,4,0,0,0,0,0,1,1,0,1,0,0,0,705,712,
scooby_state_4033b9|2|-7 706,1,2,1,0,0,1,0,0,0,0,0,0,0,0,711,
scooby_state_4033b9|39|-2 0,0,0,1,1,0,2,0,1,2,1,0,0,0,702,710,
scooby_state_4033b9|49|-10 1,0,0,0,1,2,1,0,1,1,0,0,0,1,702,710,
scooby_state_4033b9|36|-11 2,6,1,0,1,0,0,0,0,0,0,1,0,1,698,710,
scooby_state_4033b9|13|-11 2,6,1,2,3,1,0,0,1,0,1,0,0,0,692,709,
scooby_state_4033b9|7|-10 1,1,0,2,0,0,1,1,1,0,1,1,2,0,698,709,
scooby_state_4033b9|18|-7 700,2,2,2,1,1,1,0,0,0,0,0,0,0,0,709,
scooby_state_4033b9|11|-6 0,1,2,0,0,1,2,0,1,0,0,1,0,1,699,708,
scooby_state_4033b9|10|-10 2,0,1,0,1,1,1,2,0,2,1,1,3,0,692,707,
scooby_state_4033b9|57|-6 1,0,0,0,0,1,1,0,1,1,1,0,3,0,698,707,
scooby_state_4033b9|15|-2 1,1,0,0,1,0,0,1,1,0,1,0,1,0,699,706,
scooby_state_4033b9|44|-6 0,1,0,0,0,1,1,0,2,0,1,1,0,1,695,703,
scooby_state_4033b9|17|-2 1,0,0,0,0,1,0,0,0,1,0,0,1,2,695,701,
scooby_state_4033b9|4|-2 0,0,0,0,2,0,1,0,0,0,0,0,0,1,696,700,
scooby_state_4033b9|27|-6 2,0,0,0,1,1,1,1,0,1,0,1,0,0,691,699,
scooby_state_4033b9|16|-13 0,1,1,2,3,0,1,0,0,1,0,0,1,1,687,698,
scooby_state_4033b9|22|-7 691,2,1,1,0,1,0,0,0,0,0,0,0,1,1,698,
scooby_state_4033b9|38|-6 0,0,0,1,2,0,0,0,0,0,0,2,0,0,691,696,
scooby_state_4033b9|13|-6 0,0,0,2,0,0,1,1,0,0,2,0,1,0,688,695,
scooby_state_4033b9|7|-2 0,1,1,1,2,0,0,1,0,1,0,0,1,0,683,691,
scooby_state_4033b9|8|-7 676,1,2,4,1,2,2,0,1,0,0,0,1,0,0,690,
scooby_state_4033b9|20|-4 0,0,0,0,0,2,1,0,0,2,0,0,0,1,684,690,
scooby_state_4033b9|50|-10 0,0,1,1,0,0,1,1,0,0,0,0,1,0,683,688,
scooby_state_4033b9|37|-10 0,2,2,0,3,3,2,1,1,0,2,0,2,2,664,684,
scooby_state_4033b9|29|-10 0,1,1,0,1,1,0,0,1,0,0,0,3,2,671,681,
scooby_state_4033b9|25|-13 0,0,0,1,0,1,1,0,1,0,0,1,1,2,672,680,
scooby_state_4033b9|3|-6 0,0,2,1,3,1,2,0,0,0,3,0,2,0,665,679,
scooby_state_4033b9|0|-16 1,1,0,1,2,2,2,2,0,1,1,1,0,1,662,677,
scooby_state_4033b9|1|-7 671,1,0,0,0,0,0,2,0,0,0,0,1,1,0,676,
scooby_state_4033b9|46|-15 5,0,0,0,0,0,0,0,1,1,0,1,0,2,666,676,
scooby_state_4033b9|4|-11 0,7,1,1,0,0,1,0,0,0,0,0,0,1,662,673,
scooby_state_4033b9|23|-6 0,2,0,1,1,0,0,0,0,1,0,1,0,0,667,673,
scooby_state_4033b9|24|-18 0,1,0,1,1,1,0,1,0,1,0,0,1,0,666,673,
scooby_state_4033b9|25|-4 1,1,0,0,1,0,0,1,0,1,0,0,3,1,664,673,
scooby_state_4033b9|51|-2 0,0,1,0,0,0,1,0,1,0,1,1,2,0,666,673,
scooby_state_4033b9|48|-2 0,1,0,1,0,0,0,0,2,0,0,1,1,0,666,672,
scooby_state_4033b9|28|-4 0,1,1,1,2,0,0,2,1,0,1,0,3,3,656,671,
scooby_state_4033b9|45|-11 0,2,0,0,1,0,1,0,1,0,1,0,0,1,664,671,
scooby_state_4033b9|26|-11 0,10,0,0,0,0,2,0,0,0,0,0,1,1,656,670,
scooby_state_4033b9|46|-12 551,0,0,0,0,0,1,2,0,0,0,2,3,0,111,670,
scooby_state_4033b9|22|-6 1,0,1,0,1,0,0,0,1,0,0,1,0,0,664,669,
scooby_state_4033b9|13|-1 0,1,2,0,0,0,0,4,1,0,0,1,0,0,660,669,
scooby_state_4033b9|11|-4 0,0,3,2,0,0,1,1,0,0,0,1,0,0,661,669,
scooby_state_4033b9|37|-13 0,1,2,1,1,1,1,3,2,0,2,1,3,0,650,668,
scooby_state_4033b9|48|-1 0,1,0,1,0,1,1,1,1,0,0,0,1,0,661,668,
scooby_state_4033b9|29|-2 0,0,1,2,0,0,0,0,0,0,1,0,0,0,663,667,
scooby_state_4033b9|41|-16 1,0,0,0,1,1,2,0,0,0,1,0,0,1,659,666,
scooby_state_4033b9|19|-11 0,2,0,0,1,1,1,0,1,1,0,0,0,1,658,666,
scooby_state_4033b9|12|-11 0,0,0,0,1,0,0,0,1,1,1,0,0,0,662,666,
scooby_state_4033b9|20|-2 0,1,1,1,1,0,2,0,0,0,0,0,0,0,659,665,
scooby_state_4033b9|50|-7 657,1,1,2,1,1,1,0,0,0,0,0,0,0,0,664,
scooby_state_4033b9|0|-7 654,1,2,3,1,0,0,2,0,0,0,0,0,0,1,664,
scooby_state_4033b9|25|-10 0,0,0,1,1,0,0,0,0,0,2,0,0,1,656,661,
scooby_state_4033b9|44|-1 0,1,0,1,1,0,1,0,0,0,0,1,0,1,654,660,
scooby_state_4033b9|17|-6 1,0,0,1,1,0,1,0,1,1,0,0,1,2,650,659,
scooby_state_4033b9|20|-1 1,0,0,1,1,1,2,1,0,0,0,1,0,0,649,657,
scooby_state_4033b9|26|-13 0,0,0,1,0,1,0,2,0,0,1,2,2,0,647,656,
scooby_state_4033b9|4|-18 0,2,1,2,1,1,2,1,3,1,0,0,1,0,639,654,
scooby_state_4033b9|5|-6 3,1,0,3,0,0,0,1,0,1,3,1,0,0,640,653,
scooby_state_4033b9|23|-13 3,0,1,2,3,0,0,1,0,0,0,1,2,0,639,652,
scooby_state_4033b9|33|-7 637,2,0,3,4,1,1,1,1,1,0,0,0,0,0,651,
scooby_state_4033b9|36|-1 0,0,1,0,0,1,0,0,0,0,0,1,0,2,644,649,
scooby_state_4033b9|17|-13 0,0,0,0,0,0,1,1,1,1,1,1,0,1,642,649,
scooby_state_4033b9|52|-11 0,2,0,1,1,2,2,0,1,1,0,1,0,0,638,649,
scooby_state_4033b9|31|-18 0,0,0,0,1,1,1,0,1,0,0,0,1,0,643,648,
scooby_state_4033b9|17|-18 0,0,0,0,0,1,0,1,1,0,2,0,0,2,638,645,
scooby_state_4033b9|15|-11 0,3,4,0,2,1,2,0,0,0,1,0,0,0,631,644,
scooby_state_4033b9|48|-7 632,0,1,4,2,1,1,1,1,0,0,0,0,0,0,643,
scooby_state_4033b9|0|-15 2,1,0,0,1,0,1,0,1,1,0,2,1,0,629,639,
scooby_state_4033b9|52|-6 0,1,0,0,1,0,0,0,0,1,0,0,2,0,634,639,
scooby_state_4033b9|25|-6 2,0,0,2,0,1,2,1,0,0,0,1,1,0,628,638,
scooby_state_4033b9|23|-4 1,0,0,0,0,1,1,1,0,0,0,0,2,2,630,638,
scooby_state_4033b9|41|-11 0,2,0,0,1,0,2,1,0,0,0,0,0,1,630,637,
scooby_state_4033b9|5|-4 1,0,1,0,0,0,0,1,0,0,0,1,1,1,629,635,
scooby_state_4033b9|6|-6 1,0,0,2,1,2,3,0,1,0,1,0,1,0,623,635,
scooby_state_4033b9|11|-2 1,0,2,1,0,1,1,0,0,0,1,0,0,3,624,634,
scooby_state_4033b9|29|-11 0,0,1,1,1,0,2,0,0,0,0,2,1,0,624,632,
scooby_state_4033b9|52|-1 0,1,0,0,0,0,0,0,1,0,2,0,0,0,628,632,
scooby_state_4033b9|16|-4 0,0,0,1,0,0,2,0,1,1,1,0,2,4,619,631,
scooby_state_4033b9|37|-4 0,0,0,0,2,0,0,0,0,0,1,0,2,1,625,631,
scooby_state_4033b9|48|-11 0,4,1,1,1,0,0,0,1,1,1,0,1,0,620,631,
scooby_state_4033b9|17|-4 1,1,1,1,0,0,1,1,0,0,0,0,2,3,619,630,
scooby_state_4033b9|4|-1 1,0,0,0,0,1,0,1,0,0,0,0,1,0,624,628,
scooby_state_4033b9|6|-11 1,2,0,0,3,1,0,0,0,0,1,0,0,1,615,624,
scooby_state_4033b9|7|-16 2,0,1,2,0,3,5,1,1,0,2,1,1,2,602,623,
scooby_state_4033b9|23|-1 0,1,3,2,1,0,0,0,0,0,0,0,0,1,612,620,
scooby_state_4033b9|54|-2 0,1,0,1,0,0,0,0,0,0,0,2,2,1,612,619,
scooby_state_4033b9|56|-1 0,1,0,1,0,1,0,1,0,1,0,0,0,1,613,619,
scooby_state_4033b9|27|-18 2,1,0,1,0,1,1,1,0,0,1,0,1,0,609,618,
scooby_state_4033b9|23|-7 616,0,0,1,0,0,0,0,1,0,0,0,0,0,0,618,
scooby_state_4033b9|57|-4 0,1,0,0,0,1,0,0,1,0,0,0,3,0,612,618,
scooby_state_4033b9|51|-11 1,6,2,1,1,0,0,1,0,0,1,0,0,0,604,617,
scooby_state_4033b9|4|-6 0,0,0,0,1,0,0,0,0,2,2,0,0,2,608,615,
scooby_state_4033b9|36|-18 2,1,2,0,0,1,0,0,0,1,0,1,1,2,603,614,
scooby_state_4033b9|5|-1 0,1,0,1,0,0,0,0,0,2,1,1,1,0,602,609,
scooby_state_4033b9|12|-15 5,1,0,1,0,1,1,1,1,0,0,0,0,0,596,607,
scooby_state_4033b9|43|-18 0,0,1,1,1,1,0,0,1,0,1,0,0,1,598,605,
scooby_state_4033b9|14|-11 0,4,1,1,1,0,0,0,2,0,0,2,2,0,590,603,
scooby_state_4033b9|44|-11 0,6,1,1,2,0,1,1,1,1,0,1,1,0,585,601,
scooby_state_4033b9|14|-7 596,0,1,1,0,2,0,1,0,0,0,0,0,0,0,601,
scooby_state_4033b9|30|-1 0,1,0,0,1,0,1,1,0,0,0,0,0,0,597,601,
scooby_state_4033b9|53|-7 594,0,0,0,2,1,1,0,1,0,0,0,0,0,0,599,
scooby_state_4033b9|24|-7 591,1,2,0,1,2,0,1,0,0,0,1,0,0,0,599,
scooby_state_4033b9|25|-11 0,1,1,0,2,2,0,0,0,0,0,0,2,0,590,598,
scooby_state_4033b9|29|-16 1,0,0,1,1,2,0,0,0,1,1,2,1,1,586,597,
scooby_state_4033b9|20|-7 589,0,1,3,2,2,0,0,0,0,0,0,0,0,0,597,
scooby_state_4033b9|6|-2 1,1,1,1,1,1,0,0,0,1,0,0,1,3,585,596,
scooby_state_4033b9|2|-16 1,1,1,2,0,3,2,0,1,0,1,0,1,1,581,595,
scooby_state_4033b9|43|-11 0,7,0,1,0,1,0,0,1,0,1,0,2,1,580,594,
scooby_state_4033b9|1|-16 0,0,1,0,0,1,0,1,0,0,0,0,0,1,590,594,
scooby_state_4033b9|15|-6 0,0,0,0,0,1,1,0,1,0,0,1,1,0,589,594,
scooby_state_4033b9|44|-4 0,1,0,1,0,0,0,0,1,0,1,0,1,4,584,593,
scooby_state_4033b9|8|-10 2,2,0,0,0,0,0,0,0,1,0,1,0,1,585,592,
scooby_state_4033b9|47|-4 2,0,2,0,0,1,1,0,0,1,0,0,4,1,579,591,
scooby_state_4033b9|45|-18 1,2,1,0,1,1,0,0,1,0,0,2,0,1,580,590,
scooby_state_4033b9|8|-26 3,1,2,0,6,2,1,4,0,1,0,0,2,1,567,590,
scooby_state_4033b9|55|-4 0,1,1,1,1,1,0,0,1,1,0,1,0,1,581,590,
scooby_state_4033b9|4|-9 2,1,1,2,1,0,0,0,0,0,0,0,3,1,579,590,
scooby_state_4033b9|51|-4 1,0,1,0,0,1,0,0,1,0,0,0,1,2,582,589,
scooby_state_4033b9|53|-1 1,0,0,1,0,1,0,1,0,0,0,1,1,1,580,587,
scooby_state_4033b9|28|-16 0,0,0,1,0,0,0,0,2,0,0,0,0,0,584,587,
scooby_state_4033b9|33|-4 1,1,1,0,1,0,2,0,0,0,0,1,4,2,573,586,
scooby_state_4033b9|35|-9 2,1,2,1,2,0,0,0,0,0,1,1,0,0,576,586,
scooby_state_4033b9|16|-18 0,0,0,2,0,0,1,0,0,0,1,0,1,1,580,586,
scooby_state_4033b9|33|-6 0,1,0,1,1,0,2,1,1,0,0,0,1,0,577,585,
scooby_state_4033b9|9|-4 0,0,0,0,0,1,0,0,0,0,0,0,2,1,581,585,
scooby_state_4033b9|3|-15 4,0,0,0,2,0,0,0,1,0,0,1,1,1,573,583,
scooby_state_4033b9|38|-7 575,0,0,0,1,1,2,3,0,0,0,0,0,0,0,582,
scooby_state_4033b9|40|-4 0,2,0,0,0,0,0,2,2,0,0,1,2,4,568,581,
scooby_state_4033b9|25|-7 572,0,2,2,0,2,2,1,0,0,0,0,0,0,0,581,
scooby_state_4033b9|52|-9 3,1,3,1,1,0,0,2,0,2,1,1,0,2,563,580,
scooby_state_4033b9|42|-11 0,5,0,3,0,0,1,2,1,1,0,0,3,0,564,580,
scooby_state_4033b9|22|-4 0,0,1,0,1,0,0,1,0,0,0,3,1,2,571,580,
scooby_state_4033b9|2|-4 0,0,1,0,2,0,1,0,1,0,0,1,2,2,569,579,
scooby_state_4033b9|30|-4 0,1,2,1,0,0,0,1,0,0,0,0,2,0,569,576,
scooby_state_4033b9|26|-12 462,0,1,1,3,0,1,2,2,1,0,2,1,0,99,575,
scooby_state_4033b9|10|-6 1,2,1,2,2,1,1,0,0,1,0,1,0,0,563,575,
scooby_state_4033b9|24|-4 1,0,1,2,0,0,0,1,0,1,1,0,0,2,566,575,
scooby_state_4033b9|8|-6 1,0,0,0,0,0,1,0,0,0,0,1,0,1,571,575,
scooby_state_4033b9|0|-1 0,0,0,1,0,1,0,0,1,0,0,0,1,0,570,574,
scooby_state_4033b9|40|-18 1,2,1,2,1,0,3,1,2,0,0,1,2,1,557,574,
scooby_state_4033b9|10|-7 568,0,1,0,1,1,0,0,0,0,0,0,0,0,1,572,
scooby_state_4033b9|19|-7 568,1,0,0,0,1,0,0,1,0,0,0,0,0,0,571,
scooby_state_4033b9|35|-16 1,0,1,1,0,1,0,0,2,0,0,0,1,1,563,571,
scooby_state_4033b9|12|-6 1,1,1,2,1,0,0,0,2,1,0,0,0,0,561,570,
scooby_state_4033b9|17|-1 0,0,1,1,0,0,0,1,0,2,1,0,0,0,563,569,
scooby_state_4033b9|36|-2 0,0,1,0,0,0,1,1,0,0,0,0,0,1,565,569,
scooby_state_4033b9|46|-6 0,1,0,1,0,0,2,0,1,0,1,1,0,0,562,569,
scooby_state_4033b9|41|-1 1,0,2,0,0,0,1,0,1,0,1,0,1,1,561,569,
scooby_state_4033b9|32|-15 4,2,1,1,1,2,0,0,1,0,0,0,1,1,554,568,
scooby_state_4033b9|39|-16 1,1,2,1,1,3,0,1,0,1,0,1,0,0,556,568,
scooby_state_4033b9|9|-21 0,2,1,0,0,2,0,0,1,0,1,0,0,1,559,567,
scooby_state_4033b9|23|-18 1,0,1,2,2,1,1,0,0,1,3,0,2,1,552,567,
scooby_state_4033b9|10|-4 1,0,1,0,2,2,1,0,0,1,0,0,1,2,556,567,
scooby_state_4033b9|48|-4 0,0,0,1,0,1,0,0,2,0,0,0,1,2,560,567,
scooby_state_4033b9|40|-11 0,2,0,2,1,0,0,0,0,0,0,1,1,0,559,566,
scooby_state_4033b9|21|-21 2,0,0,1,0,0,0,0,0,1,0,0,0,1,561,566,
scooby_state_4033b9|30|-6 0,1,0,0,0,0,0,0,0,1,0,0,0,0,564,566,
scooby_state_4033b9|47|-15 3,0,2,0,0,0,0,0,0,0,0,0,0,2,559,566,
scooby_state_4033b9|42|-6 0,0,0,1,0,0,1,1,2,0,0,1,0,0,559,565,
scooby_state_4033b9|41|-4 0,1,0,0,0,0,1,0,1,0,2,0,2,2,555,564,
scooby_state_4033b9|51|-7 558,0,2,1,1,0,0,1,0,0,0,0,0,1,0,564,
scooby_state_4033b9|7|-7 552,0,1,2,2,1,0,1,2,1,0,0,1,0,0,563,
scooby_state_4033b9|19|-4 1,1,0,1,0,0,1,0,1,1,0,0,2,0,554,562,
scooby_state_4033b9|36|-6 0,1,0,1,0,0,0,0,0,0,0,0,1,2,555,560,
scooby_state_4033b9|27|-11 0,1,0,0,0,0,0,1,1,0,0,0,0,1,556,560,
scooby_state_4033b9|6|-16 0,1,1,1,0,1,0,2,2,0,0,0,1,0,550,559,
scooby_state_4033b9|16|-1 1,2,1,0,1,0,2,1,0,1,0,2,0,1,546,558,
scooby_state_4033b9|27|-4 0,2,2,0,1,0,0,1,0,0,0,0,1,2,547,556,
scooby_state_4033b9|33|-16 0,0,3,1,1,0,0,0,0,1,0,0,0,0,550,556,
scooby_state_4033b9|23|-15 2,0,3,0,1,0,2,1,2,1,1,2,0,1,540,556,
scooby_state_4033b9|3|-1 0,1,0,0,0,0,0,2,1,1,0,0,0,0,550,555,
scooby_state_4033b9|34|-4 0,0,2,0,0,0,0,0,0,0,0,0,1,4,547,554,
scooby_state_4033b9|55|-6 1,0,1,1,1,0,1,0,1,0,0,0,0,0,547,553,
scooby_state_4033b9|34|-18 0,0,2,1,0,1,1,0,0,1,1,1,0,0,545,553,
scooby_state_4033b9|36|-4 0,0,1,1,1,2,0,1,2,0,1,0,3,2,538,552,
scooby_state_4033b9|40|-16 1,1,1,0,1,0,0,0,0,0,1,0,0,1,545,551,
scooby_state_4033b9|52|-10 0,0,1,0,1,1,1,0,0,1,0,0,1,0,544,550,
scooby_state_4033b9|25|-15 0,1,0,1,0,1,1,0,0,0,0,2,0,0,544,550,
scooby_state_4033b9|40|-21 0,0,1,2,2,0,1,2,0,1,1,1,5,0,534,550,
scooby_state_4033b9|31|-11 0,3,0,2,2,1,1,0,0,0,0,0,1,0,539,549,
scooby_state_4033b9|15|-4 0,0,1,0,0,0,1,0,1,0,0,1,3,1,540,548,
scooby_state_4033b9|34|-15 8,0,1,0,0,1,0,1,1,1,2,0,0,1,532,548,
scooby_state_4033b9|49|-7 537,0,0,2,3,3,2,0,0,0,0,0,0,0,0,547,
scooby_state_4033b9|5|-7 538,0,1,4,3,0,1,0,0,0,0,0,0,0,0,547,
scooby_state_4033b9|28|-9 6,3,0,2,4,0,0,0,0,0,2,1,0,0,529,547,
scooby_state_4033b9|18|-11 0,3,4,1,1,1,0,0,3,1,0,0,0,0,532,546,
scooby_state_4033b9|38|-11 0,0,1,1,0,0,0,0,0,2,0,1,0,1,540,546,
scooby_state_4033b9|19|-18 0,1,0,0,0,1,1,0,0,1,1,0,0,2,539,546,
scooby_state_4033b9|34|-26 2,3,1,2,1,4,4,3,2,1,1,0,1,4,517,546,
scooby_state_4033b9|40|-15 5,2,0,1,2,0,0,0,0,0,0,0,2,2,531,545,
scooby_state_4033b9|47|-11 0,6,2,0,2,2,1,0,0,0,0,0,1,0,531,545,
scooby_state_4033b9|40|-12 440,0,0,0,1,1,1,0,1,1,0,2,1,0,97,545,
scooby_state_4033b9|9|-16 0,2,0,2,2,0,0,0,1,2,0,0,0,0,536,545,
scooby_state_4033b9|13|-16 1,2,0,1,0,3,1,0,1,0,0,1,1,0,533,544,
scooby_state_4033b9|22|-21 1,0,3,1,0,2,0,0,1,1,0,0,3,2,528,542,
scooby_state_4033b9|28|-6 1,1,0,1,0,0,1,2,0,0,0,0,0,0,534,540,
scooby_state_4033b9|10|-15 7,1,1,0,1,0,0,0,0,0,0,1,0,2,527,540,
scooby_state_4033b9|26|-6 0,1,1,0,0,1,0,5,2,0,0,0,0,0,529,539,
scooby_state_4033b9|18|-9 1,0,0,1,1,3,0,0,0,0,1,1,0,1,529,538,
scooby_state_4033b9|41|-7 531,0,0,0,3,1,0,0,1,0,0,0,0,0,0,536,
scooby_state_4033b9|14|-16 1,1,2,0,0,1,0,2,1,2,2,1,1,0,522,536,
scooby_state_4033b9|0|-11 0,3,0,0,2,0,0,0,0,0,0,1,0,1,528,535,
scooby_state_4033b9|36|-9 2,1,0,2,1,2,1,1,1,1,0,0,1,0,521,534,
scooby_state_4033b9|37|-18 0,1,3,1,0,1,1,2,1,3,0,0,0,3,517,533,
scooby_state_4033b9|11|-12 428,1,1,0,0,2,0,0,0,0,2,1,1,1,95,532,
scooby_state_4033b9|48|-9 1,1,0,0,0,1,0,0,1,4,2,0,1,1,520,532,
scooby_state_4033b9|3|-16 3,0,0,0,0,1,1,0,1,0,0,0,1,0,525,532,
scooby_state_4033b9|46|-11 0,1,1,0,0,0,0,2,0,0,1,0,2,0,525,532,
scooby_state_4033b9|35|-1 1,0,0,0,1,0,1,0,2,0,0,1,1,1,523,531,
scooby_state_4033b9|50|-6 0,0,0,0,2,1,0,1,2,0,0,2,0,1,521,530,
scooby_state_4033b9|39|-7 525,0,0,0,0,1,1,1,1,0,0,0,0,0,0,529,
scooby_state_4033b9|8|-11 0,2,1,0,1,0,0,0,0,0,0,0,0,0,521,525,
scooby_state_4033b9|44|-18 0,0,2,0,0,0,0,0,0,0,0,0,2,1,520,525,
scooby_state_4033b9|7|-4 0,0,0,1,0,1,0,0,0,1,0,1,1,2,518,525,
scooby_state_4033b9|35|-15 4,1,0,0,2,0,1,0,1,0,0,1,0,1,513,524,
scooby_state_4033b9|4|-21 1,0,0,2,2,0,1,0,1,1,1,3,2,0,509,523,
scooby_state_4033b9|27|-16 0,0,0,0,0,1,2,0,0,0,1,1,0,2,516,523,
scooby_state_4033b9|13|-18 0,1,1,1,1,2,0,0,0,2,1,0,3,0,510,522,
scooby_state_4033b9|15|-15 0,1,2,2,0,1,0,1,1,1,1,0,1,2,509,522,
scooby_state_4033b9|26|-18 0,0,0,0,1,2,2,0,2,1,0,0,0,0,514,522,
scooby_state_4033b9|25|-1 0,0,0,0,2,0,0,0,0,1,0,1,0,0,518,522,
scooby_state_4033b9|31|-16 1,0,1,2,0,1,1,0,3,0,0,0,0,0,510,519,
scooby_state_4033b9|45|-16 1,1,2,0,1,0,0,0,0,0,1,0,0,0,512,518,
scooby_state_4033b9|20|-18 0,0,1,1,0,0,0,1,1,0,0,2,0,3,508,517,
scooby_state_4033b9|55|-1 0,1,2,0,0,0,0,0,0,1,1,1,1,1,508,516,
scooby_state_4033b9|32|-18 1,0,0,1,0,0,2,1,1,0,2,2,0,1,505,516,
scooby_state_4033b9|15|-16 0,0,1,0,0,1,2,1,0,0,0,1,1,0,508,515,
scooby_state_4033b9|40|-7 508,2,0,1,0,1,0,2,0,1,0,0,0,0,0,515,
scooby_state_4033b9|44|-12 408,0,0,3,1,3,1,1,0,1,0,2,0,0,95,515,
scooby_state_4033b9|17|-15 8,0,0,0,0,0,3,0,2,0,0,0,1,1,500,515,
scooby_state_4033b9|44|-9 1,2,1,1,1,2,2,0,0,0,1,0,0,1,502,514,
scooby_state_4033b9|38|-4 0,0,0,0,0,1,0,0,0,0,0,0,1,0,511,513,
scooby_state_4033b9|47|-12 403,0,0,0,0,0,1,0,0,1,2,1,2,0,103,513,
scooby_state_4033b9|10|-11 0,4,0,0,0,0,0,0,1,0,1,1,0,0,505,512,
scooby_state_4033b9|7|-1 1,0,0,1,0,0,0,0,1,0,0,2,1,0,506,512,
[...]
scooby_state_4033d5|1|1 1,6,0,0,0,0,0,0,0,0,0,0,0,0,0,7,
scooby_state_4033b9|47|25 0,0,0,0,0,0,0,0,0,0,0,0,0,0,7,7,
scooby_state_4033c5|51|-1 0,0,0,0,0,0,0,0,0,0,7,0,0,0,0,7,
scooby_state_4033b9|37|14 0,0,0,0,0,0,0,0,0,0,1,0,0,0,6,7,
scooby_state_4033b9|45|17 0,0,0,0,0,0,0,0,0,0,0,0,0,0,7,7,
scooby_state_4033b9|18|17 0,0,0,0,0,0,1,0,0,0,0,0,0,0,6,7,
scooby_state_4033c9|33|3 5,1,0,0,0,0,0,0,0,0,0,0,0,0,0,6,
scooby_state_4033c9|5|3 6,0,0,0,0,0,0,0,0,0,0,0,0,0,0,6,
scooby_state_4033c9|31|3 5,0,0,0,1,0,0,0,0,0,0,0,0,0,0,6,
scooby_state_4033c9|6|3 6,0,0,0,0,0,0,0,0,0,0,0,0,0,0,6,
scooby_state_4033b9|39|27 0,0,0,0,0,0,0,0,0,0,0,0,0,0,6,6,
scooby_state_4033c9|54|3 6,0,0,0,0,0,0,0,0,0,0,0,0,0,0,6,
scooby_state_4033c9|17|3 6,0,0,0,0,0,0,0,0,0,0,0,0,0,0,6,
scooby_state_4033c5|28|-1 0,0,0,0,0,0,0,0,0,0,6,0,0,0,0,6,
scooby_state_4033d5|2|2 0,6,0,0,0,0,0,0,0,0,0,0,0,0,0,6,
scooby_state_4033c9|47|3 6,0,0,0,0,0,0,0,0,0,0,0,0,0,0,6,
scooby_state_4033c5|2|1 0,0,0,0,0,0,0,0,0,0,5,0,0,0,0,5,
scooby_state_4033d5|31|-1 0,5,0,0,0,0,0,0,0,0,0,0,0,0,0,5,
scooby_state_4033c5|27|-1 0,0,0,0,0,0,0,0,0,0,5,0,0,0,0,5,
scooby_state_4033c9|8|3 5,0,0,0,0,0,0,0,0,0,0,0,0,0,0,5,
scooby_state_4033c9|27|3 5,0,0,0,0,0,0,0,0,0,0,0,0,0,0,5,
scooby_state_4033c9|4|3 4,0,0,0,1,0,0,0,0,0,0,0,0,0,0,5,
scooby_state_4033c9|7|3 5,0,0,0,0,0,0,0,0,0,0,0,0,0,0,5,
scooby_state_4033c9|10|3 5,0,0,0,0,0,0,0,0,0,0,0,0,0,0,5,
scooby_state_4033b9|48|22 0,2,0,0,0,0,0,0,0,0,0,0,0,0,3,5,
scooby_state_4033c9|42|3 4,1,0,0,0,0,0,0,0,0,0,0,0,0,0,5,
scooby_state_4033b9|40|14 0,0,0,0,0,0,0,0,0,0,0,0,0,0,5,5,
scooby_state_4033c9|40|3 4,0,0,0,1,0,0,0,0,0,0,0,0,0,0,5,
scooby_state_4033c9|50|3 4,0,0,0,1,0,0,0,0,0,0,0,0,0,0,5,
scooby_state_4033c9|3|3 5,0,0,0,0,0,0,0,0,0,0,0,0,0,0,5,
scooby_state_4033d5|51|-1 0,5,0,0,0,0,0,0,0,0,0,0,0,0,0,5,
scooby_state_4033c9|23|3 3,0,0,0,2,0,0,0,0,0,0,0,0,0,0,5,
scooby_state_4033c9|24|3 5,0,0,0,0,0,0,0,0,0,0,0,0,0,0,5,
scooby_state_4033d5|4|-1 0,4,0,0,0,0,0,0,0,0,0,0,0,0,1,5,
scooby_state_4033c9|56|3 4,0,0,0,0,0,0,0,0,0,0,0,0,0,0,4,
scooby_state_4033c9|38|3 4,0,0,0,0,0,0,0,0,0,0,0,0,0,0,4,
scooby_state_4033c9|53|3 4,0,0,0,0,0,0,0,0,0,0,0,0,0,0,4,
scooby_state_4033c9|12|3 4,0,0,0,0,0,0,0,0,0,0,0,0,0,0,4,
scooby_state_4033d5|55|-1 0,2,0,0,0,0,0,0,0,0,0,0,0,0,2,4,
scooby_state_4033c9|29|3 4,0,0,0,0,0,0,0,0,0,0,0,0,0,0,4,
scooby_state_4033d5|19|-1 0,4,0,0,0,0,0,0,0,0,0,0,0,0,0,4,
scooby_state_4033d5|57|-1 0,4,0,0,0,0,0,0,0,0,0,0,0,0,0,4,
scooby_state_4033c9|61|3 4,0,0,0,0,0,0,0,0,0,0,0,0,0,0,4,
scooby_state_4033c9|50|4 0,2,0,0,0,0,0,0,0,0,0,0,0,0,2,4,
scooby_state_4033c9|37|3 4,0,0,0,0,0,0,0,0,0,0,0,0,0,0,4,
scooby_state_4033d5|34|-1 0,4,0,0,0,0,0,0,0,0,0,0,0,0,0,4,
scooby_state_4033c9|30|3 4,0,0,0,0,0,0,0,0,0,0,0,0,0,0,4,
scooby_state_4033c9|48|3 4,0,0,0,0,0,0,0,0,0,0,0,0,0,0,4,
scooby_state_4033c9|63|3 4,0,0,0,0,0,0,0,0,0,0,0,0,0,0,4,
scooby_state_4033c9|58|3 4,0,0,0,0,0,0,0,0,0,0,0,0,0,0,4,
scooby_state_4033d5|33|-1 0,4,0,0,0,0,0,0,0,0,0,0,0,0,0,4,
scooby_state_4033c9|18|3 3,0,0,0,1,0,0,0,0,0,0,0,0,0,0,4,
scooby_state_4033d5|39|-1 0,4,0,0,0,0,0,0,0,0,0,0,0,0,0,4,
scooby_state_4033c9|60|4 0,3,0,0,0,0,0,0,0,0,0,0,0,0,1,4,
scooby_state_4033c9|41|3 4,0,0,0,0,0,0,0,0,0,0,0,0,0,0,4,
scooby_state_4033d5|9|-1 0,3,0,0,0,0,0,0,0,0,0,0,0,0,1,4,
scooby_state_4033c9|62|4 0,3,0,0,0,0,0,0,0,0,0,0,0,0,1,4,
scooby_state_4033c9|49|3 3,1,0,0,0,0,0,0,0,0,0,0,0,0,0,4,
scooby_state_4033c9|58|4 0,3,0,0,0,0,0,0,0,0,0,0,0,0,1,4,
scooby_state_4033c9|62|3 4,0,0,0,0,0,0,0,0,0,0,0,0,0,0,4,
scooby_state_4033d5|42|-1 0,4,0,0,0,0,0,0,0,0,0,0,0,0,0,4,
scooby_state_4033d5|62|-1 0,3,0,0,0,0,0,0,0,0,0,0,0,0,0,3,
scooby_state_4033c9|15|3 3,0,0,0,0,0,0,0,0,0,0,0,0,0,0,3,
scooby_state_4033d5|14|-1 0,3,0,0,0,0,0,0,0,0,0,0,0,0,0,3,
scooby_state_4033c9|29|4 0,2,0,0,0,0,0,0,0,0,0,0,0,0,1,3,
scooby_state_4033c9|55|3 3,0,0,0,0,0,0,0,0,0,0,0,0,0,0,3,
scooby_state_4033c9|25|3 3,0,0,0,0,0,0,0,0,0,0,0,0,0,0,3,
scooby_state_4033c9|9|4 0,2,0,0,0,0,0,0,0,0,0,0,0,0,1,3,
scooby_state_4033d5|12|-1 0,3,0,0,0,0,0,0,0,0,0,0,0,0,0,3,
scooby_state_4033b9|34|17 0,0,0,0,0,0,0,0,0,0,0,0,0,0,3,3,
scooby_state_4033d5|25|-1 0,3,0,0,0,0,0,0,0,0,0,0,0,0,0,3,
scooby_state_4033d5|43|-1 0,3,0,0,0,0,0,0,0,0,0,0,0,0,0,3,
scooby_state_4033d5|6|-1 0,3,0,0,0,0,0,0,0,0,0,0,0,0,0,3,
scooby_state_4033c9|60|3 3,0,0,0,0,0,0,0,0,0,0,0,0,0,0,3,
scooby_state_4033d5|46|-1 0,3,0,0,0,0,0,0,0,0,0,0,0,0,0,3,
scooby_state_4033d5|18|-1 0,2,0,0,0,0,0,0,0,0,0,0,0,0,1,3,
scooby_state_4033c9|61|5 0,2,0,0,0,0,0,0,0,0,0,0,0,0,1,3,
scooby_state_4033c9|32|3 3,0,0,0,0,0,0,0,0,0,0,0,0,0,0,3,
scooby_state_4033d5|26|-1 1,1,0,0,0,0,0,0,0,0,0,0,0,0,1,3,
scooby_state_4033c9|19|3 2,0,0,0,0,0,0,0,0,0,0,0,0,0,0,2,
scooby_state_4033c9|7|4 0,1,0,0,0,0,0,0,0,0,0,0,0,0,1,2,
scooby_state_4033c9|24|5 1,1,0,0,0,0,0,0,0,0,0,0,0,0,0,2,
scooby_state_4033c9|22|3 2,0,0,0,0,0,0,0,0,0,0,0,0,0,0,2,
scooby_state_4033d5|52|-1 0,2,0,0,0,0,0,0,0,0,0,0,0,0,0,2,
scooby_state_4033d5|61|-1 0,2,0,0,0,0,0,0,0,0,0,0,0,0,0,2,
scooby_state_4033c9|28|3 1,1,0,0,0,0,0,0,0,0,0,0,0,0,0,2,
scooby_state_4033d5|32|-1 0,2,0,0,0,0,0,0,0,0,0,0,0,0,0,2,
scooby_state_4033d5|27|-1 0,2,0,0,0,0,0,0,0,0,0,0,0,0,0,2,
scooby_state_4033c9|26|3 2,0,0,0,0,0,0,0,0,0,0,0,0,0,0,2,
scooby_state_4033c9|20|3 2,0,0,0,0,0,0,0,0,0,0,0,0,0,0,2,
scooby_state_4033d5|11|-1 0,2,0,0,0,0,0,0,0,0,0,0,0,0,0,2,
scooby_state_4033c9|21|3 2,0,0,0,0,0,0,0,0,0,0,0,0,0,0,2,
scooby_state_4033c9|48|5 1,1,0,0,0,0,0,0,0,0,0,0,0,0,0,2,
scooby_state_4033c9|12|4 0,1,0,0,0,0,0,0,0,0,0,0,0,0,1,2,
scooby_state_4033c9|25|4 0,2,0,0,0,0,0,0,0,0,0,0,0,0,0,2,
scooby_state_4033c9|57|3 2,0,0,0,0,0,0,0,0,0,0,0,0,0,0,2,
scooby_state_4033d5|20|-1 0,2,0,0,0,0,0,0,0,0,0,0,0,0,0,2,
scooby_state_4033c9|7|5 0,1,0,0,0,0,0,0,0,0,0,0,0,0,1,2,
scooby_state_4033c9|35|4 0,0,0,0,0,0,0,0,0,0,0,0,0,0,2,2,
scooby_state_4033c9|55|4 0,1,0,0,0,0,0,0,0,0,0,0,0,0,1,2,
scooby_state_4033c9|34|5 1,0,0,0,0,0,0,0,0,0,0,0,0,0,1,2,
scooby_state_4033c9|20|4 0,2,0,0,0,0,0,0,0,0,0,0,0,0,0,2,
scooby_state_4033c9|10|4 0,2,0,0,0,0,0,0,0,0,0,0,0,0,0,2,
scooby_state_4033d5|10|-1 0,2,0,0,0,0,0,0,0,0,0,0,0,0,0,2,
scooby_state_4033c9|26|4 0,2,0,0,0,0,0,0,0,0,0,0,0,0,0,2,
scooby_state_4033c9|34|4 0,2,0,0,0,0,0,0,0,0,0,0,0,0,0,2,
scooby_state_4033d5|41|-1 0,2,0,0,0,0,0,0,0,0,0,0,0,0,0,2,
scooby_state_4033c9|5|5 0,2,0,0,0,0,0,0,0,0,0,0,0,0,0,2,
scooby_state_4033d5|54|-1 0,2,0,0,0,0,0,0,0,0,0,0,0,0,0,2,
scooby_state_4033d5|13|-1 0,2,0,0,0,0,0,0,0,0,0,0,0,0,0,2,
scooby_state_4033c9|32|4 0,2,0,0,0,0,0,0,0,0,0,0,0,0,0,2,
scooby_state_4033c9|35|3 2,0,0,0,0,0,0,0,0,0,0,0,0,0,0,2,
scooby_state_4033c9|54|4 0,2,0,0,0,0,0,0,0,0,0,0,0,0,0,2,
scooby_state_4033c9|33|4 0,0,0,0,0,0,0,0,0,0,0,0,0,0,2,2,
scooby_state_4033c9|51|3 2,0,0,0,0,0,0,0,0,0,0,0,0,0,0,2,
scooby_state_4033c9|16|3 2,0,0,0,0,0,0,0,0,0,0,0,0,0,0,2,
scooby_state_4033c9|14|4 0,1,0,0,0,0,0,0,0,0,0,0,0,0,1,2,
scooby_state_4033c9|40|4 0,0,0,0,0,0,0,0,0,0,0,0,0,0,1,1,
scooby_state_4033c9|33|12 0,0,0,0,0,0,0,0,0,0,0,0,0,0,1,1,
scooby_state_4033c9|58|5 0,0,0,0,0,0,0,0,0,0,0,0,0,0,1,1,
scooby_state_4033c9|13|4 0,0,0,0,0,0,0,0,0,0,0,0,0,0,1,1,
scooby_state_4033c9|53|4 0,0,0,0,0,0,0,0,0,0,0,0,0,0,1,1,
scooby_state_4033c9|62|5 1,0,0,0,0,0,0,0,0,0,0,0,0,0,0,1,
scooby_state_4033c9|35|5 0,1,0,0,0,0,0,0,0,0,0,0,0,0,0,1,
scooby_state_4033d5|47|-1 0,1,0,0,0,0,0,0,0,0,0,0,0,0,0,1,
scooby_state_4033c9|19|5 0,0,0,0,0,0,0,0,0,0,0,0,0,0,1,1,
scooby_state_40156c|52|0 1,0,0,0,0,0,0,0,0,0,0,0,0,0,0,1,
scooby_state_4033c9|59|4 0,1,0,0,0,0,0,0,0,0,0,0,0,0,0,1,
scooby_state_4033c9|32|8 0,0,0,0,0,0,0,0,1,0,0,0,0,0,0,1,
scooby_state_4033a0|14|-1 1,0,0,0,0,0,0,0,0,0,0,0,0,0,0,1,
scooby_state_401560|21|-1 1,0,0,0,0,0,0,0,0,0,0,0,0,0,0,1,
scooby_state_4033c9|14|6 0,0,0,0,0,0,0,0,0,0,0,0,0,0,1,1,
scooby_state_4033c9|58|8 0,0,0,0,0,0,0,0,0,0,0,0,0,0,1,1,
scooby_state_4033c9|34|6 0,0,0,0,0,0,0,0,0,0,1,0,0,0,0,1,
scooby_state_4033d5|8|-1 0,1,0,0,0,0,0,0,0,0,0,0,0,0,0,1,
scooby_state_4033c9|30|10 0,0,0,0,0,0,0,0,0,0,1,0,0,0,0,1,
scooby_state_4033c9|52|4 0,1,0,0,0,0,0,0,0,0,0,0,0,0,0,1,
scooby_state_4033c9|16|4 0,0,0,0,0,0,0,0,0,0,0,0,0,0,1,1,
scooby_state_4033d5|45|-1 0,1,0,0,0,0,0,0,0,0,0,0,0,0,0,1,
scooby_state_4033d5|38|-1 0,1,0,0,0,0,0,0,0,0,0,0,0,0,0,1,
scooby_state_4033c9|38|4 0,0,0,0,0,0,0,0,0,0,0,0,0,0,1,1,
scooby_state_4033c9|21|5 0,1,0,0,0,0,0,0,0,0,0,0,0,0,0,1,
scooby_state_4033a0|62|0 1,0,0,0,0,0,0,0,0,0,0,0,0,0,0,1,
scooby_state_4033c9|46|7 0,0,0,0,0,0,0,0,0,0,0,0,0,0,1,1,
scooby_state_4033c9|46|4 0,1,0,0,0,0,0,0,0,0,0,0,0,0,0,1,
scooby_state_4033c9|62|9 1,0,0,0,0,0,0,0,0,0,0,0,0,0,0,1,
scooby_state_4033d5|60|-1 0,1,0,0,0,0,0,0,0,0,0,0,0,0,0,1,
scooby_state_4033c9|46|-1 0,1,0,0,0,0,0,0,0,0,0,0,0,0,0,1,
scooby_state_4033d5|29|-1 0,1,0,0,0,0,0,0,0,0,0,0,0,0,0,1,
scooby_state_4033c9|22|-2 0,1,0,0,0,0,0,0,0,0,0,0,0,0,0,1,
scooby_state_4033c9|50|6 0,0,0,0,0,0,0,0,0,0,0,0,0,0,1,1,
scooby_state_4033c9|51|4 0,0,0,0,0,0,0,0,0,0,0,0,0,0,1,1,
scooby_state_4033c9|30|4 0,0,0,0,0,0,0,0,0,0,0,0,0,0,1,1,
scooby_state_4033d5|3|-1 0,1,0,0,0,0,0,0,0,0,0,0,0,0,0,1,
scooby_state_40159c|61|0 1,0,0,0,0,0,0,0,0,0,0,0,0,0,0,1,
scooby_state_4033c9|26|5 0,1,0,0,0,0,0,0,0,0,0,0,0,0,0,1,
scooby_state_4033c9|5|4 0,0,0,0,0,0,0,0,0,0,0,0,0,0,1,1,
scooby_state_4033d5|58|-1 0,0,0,0,0,0,0,0,0,0,0,0,0,0,1,1,
scooby_state_4033c9|11|3 1,0,0,0,0,0,0,0,0,0,0,0,0,0,0,1,
scooby_state_4033c9|45|15 0,0,0,0,0,0,0,0,0,0,0,0,0,0,1,1,
scooby_state_4033d5|30|-1 0,1,0,0,0,0,0,0,0,0,0,0,0,0,0,1,
scooby_state_4033c9|11|4 0,1,0,0,0,0,0,0,0,0,0,0,0,0,0,1,
scooby_state_4033c9|45|8 0,0,0,0,0,0,0,0,0,0,0,0,0,0,1,1,
scooby_state_4033c9|49|4 0,1,0,0,0,0,0,0,0,0,0,0,0,0,0,1,
scooby_state_4033d5|53|-1 0,1,0,0,0,0,0,0,0,0,0,0,0,0,0,1,
scooby_state_4033c9|60|5 0,1,0,0,0,0,0,0,0,0,0,0,0,0,0,1,
scooby_state_4033c9|44|3 1,0,0,0,0,0,0,0,0,0,0,0,0,0,0,1,
scooby_state_4033c9|36|-2 0,1,0,0,0,0,0,0,0,0,0,0,0,0,0,1,
scooby_state_4033c9|15|5 0,1,0,0,0,0,0,0,0,0,0,0,0,0,0,1,
scooby_state_4033c9|39|4 0,0,0,0,0,0,0,0,0,0,0,0,0,0,1,1,
scooby_state_4033c9|14|3 1,0,0,0,0,0,0,0,0,0,0,0,0,0,0,1,
scooby_state_4033d5|21|-1 0,0,0,0,0,0,0,0,0,0,0,0,0,0,1,1,
scooby_state_4033d5|16|-1 0,1,0,0,0,0,0,0,0,0,0,0,0,0,0,1,
scooby_state_4033c9|55|-1 0,1,0,0,0,0,0,0,0,0,0,0,0,0,0,1,
scooby_state_4033c9|29|5 0,1,0,0,0,0,0,0,0,0,0,0,0,0,0,1,
scooby_state_4033c9|16|6 0,0,0,0,0,0,0,0,0,0,1,0,0,0,0,1,
scooby_state_4033c9|18|4 0,0,0,0,0,0,0,0,0,0,0,0,0,0,1,1,
scooby_state_4033c9|55|5 0,1,0,0,0,0,0,0,0,0,0,0,0,0,0,1,
scooby_state_4033c9|24|4 0,0,0,0,0,0,0,0,0,0,0,0,0,0,1,1,
scooby_state_4033c9|42|4 0,1,0,0,0,0,0,0,0,0,0,0,0,0,0,1,
scooby_state_4033c9|44|20 0,0,0,0,0,0,0,0,0,0,0,0,0,0,1,1,
scooby_state_4033c9|17|4 0,0,0,0,0,0,0,0,0,0,0,0,0,0,1,1,
scooby_state_4033d5|28|-1 0,0,0,0,0,0,0,0,0,0,0,0,0,0,1,1,
scooby_state_4033c9|58|6 0,0,0,0,0,0,0,0,0,0,0,0,0,0,1,1,
scooby_state_4033c9|10|5 0,1,0,0,0,0,0,0,0,0,0,0,0,0,0,1,
scooby_state_4033c9|36|4 0,1,0,0,0,0,0,0,0,0,0,0,0,0,0,1,
scooby_state_4033c9|57|-2 0,1,0,0,0,0,0,0,0,0,0,0,0,0,0,1,
scooby_state_4033c9|22|6 0,0,0,0,0,0,0,0,0,0,0,0,0,0,1,1,
scooby_state_4033f0|60|-2 1,0,0,0,0,0,0,0,0,0,0,0,0,0,0,1,
scooby_state_4033c9|37|5 1,0,0,0,0,0,0,0,0,0,0,0,0,0,0,1,
scooby_state_4033c9|46|3 1,0,0,0,0,0,0,0,0,0,0,0,0,0,0,1,
scooby_state_4033d5|44|-1 0,1,0,0,0,0,0,0,0,0,0,0,0,0,0,1,
scooby_state_4033d5|24|-1 0,1,0,0,0,0,0,0,0,0,0,0,0,0,0,1,
scooby_state_4033c9|9|5 0,0,0,0,0,0,0,0,0,0,0,0,0,0,1,1,
scooby_state_4033d5|0|-1 0,1,0,0,0,0,0,0,0,0,0,0,0,0,0,1,
scooby_state_4033c9|30|-1 0,1,0,0,0,0,0,0,0,0,0,0,0,0,0,1,
scooby_state_4033c9|11|8 0,0,0,0,0,0,0,0,0,1,0,0,0,0,0,1,
scooby_state_4033c9|58|9 0,0,0,0,1,0,0,0,0,0,0,0,0,0,0,1,
scooby_state_4033c9|6|4 0,1,0,0,0,0,0,0,0,0,0,0,0,0,0,1,
scooby_state_4033c9|7|6 0,0,0,0,0,0,0,0,0,0,0,0,0,0,1,1,
scooby_state_4033d5|36|-1 0,1,0,0,0,0,0,0,0,0,0,0,0,0,0,1,
scooby_state_4033c9|46|5 0,1,0,0,0,0,0,0,0,0,0,0,0,0,0,1,
scooby_state_4033e0|15|0 1,0,0,0,0,0,0,0,0,0,0,0,0,0,0,1,
scooby_state_4033c9|48|15 0,0,0,0,0,0,0,0,0,0,0,0,0,0,1,1,
scooby_state_4033c9|45|5 1,0,0,0,0,0,0,0,0,0,0,0,0,0,0,1,
scooby_state_4033d5|37|-1 0,1,0,0,0,0,0,0,0,0,0,0,0,0,0,1,
scooby_state_4033c9|40|5 1,0,0,0,0,0,0,0,0,0,0,0,0,0,0,1,
scooby_state_4033c9|39|5 1,0,0,0,0,0,0,0,0,0,0,0,0,0,0,1,
scooby_state_4033c9|26|-2 0,1,0,0,0,0,0,0,0,0,0,0,0,0,0,1,
scooby_state_4033d5|5|-1 0,1,0,0,0,0,0,0,0,0,0,0,0,0,0,1,
scooby_state_4033c9|30|5 0,1,0,0,0,0,0,0,0,0,0,0,0,0,0,1,
scooby_state_4033c9|16|5 0,1,0,0,0,0,0,0,0,0,0,0,0,0,0,1,
scooby_state_4033d5|17|-1 0,1,0,0,0,0,0,0,0,0,0,0,0,0,0,1,
scooby_state_4033d5|23|-1 0,1,0,0,0,0,0,0,0,0,0,0,0,0,0,1,
scooby_state_4033c9|31|4 0,1,0,0,0,0,0,0,0,0,0,0,0,0,0,1,
scooby_state_4033c9|13|3 1,0,0,0,0,0,0,0,0,0,0,0,0,0,0,1,
scooby_state_4033c9|8|4 0,0,0,0,0,0,0,0,0,0,0,0,0,0,1,1,
scooby_state_401582|22|0 1,0,0,0,0,0,0,0,0,0,0,0,0,0,0,1,

scooby_action_0_deg_dist 0,1190281,0,0,0,0,0,0,0,0,0,0,0,0,0,0,
scooby_action_-6_deg_dist 0,2333,2,0,0,0,0,0,0,0,0,0,0,0,0,0,
scooby_action_4_deg_dist 0,1926,14,0,2,0,0,0,0,0,0,0,0,0,0,0,
scooby_action_1_deg_dist 0,162375,52024,0,134158,0,1053561,0,0,0,0,0,0,0,0,0,
scooby_action_30_deg_dist 0,1582,1,0,0,0,0,0,0,0,0,0,0,0,0,0,
scooby_action_5_deg_dist 0,2121,19,0,9,0,0,0,0,0,0,0,0,0,0,0,
scooby_action_10_deg_dist 0,2112,10,0,2,0,0,0,0,0,0,0,0,0,0,0,
scooby_action_3_deg_dist 0,77762,45570,0,40987,0,148,0,0,0,0,0,0,0,0,0,
scooby_action_32_deg_dist 0,2556,0,0,0,0,0,0,0,0,0,0,0,0,0,0,
scooby_action_11_deg_dist 0,1942,3,0,3,0,0,0,0,0,0,0,0,0,0,0,
scooby_action_12_deg_dist 0,1862,5,0,0,0,0,0,0,0,0,0,0,0,0,0,
scooby_action_22_deg_dist 0,1761,4,0,0,0,0,0,0,0,0,0,0,0,0,0,
scooby_action_23_deg_dist 0,1715,1,0,0,0,0,0,0,0,0,0,0,0,0,0,
scooby_action_-1_deg_dist 0,2305,4,0,1,0,0,0,0,0,0,0,0,0,0,0,
scooby_action_-3_deg_dist 0,2688,5,0,0,0,0,0,0,0,0,0,0,0,0,0,

scooby_track_called 2781854
scooby_track_same_address 153163
scooby_track_evict 2628435

scooby_reward_demand_called 2781854
scooby_reward_demand_pt_not_found 1488692
scooby_reward_demand_pt_found 1293162
scooby_reward_demand_pt_found_total 1293162
scooby_reward_demand_has_reward 1
scooby_reward_train_called 1302206
scooby_reward_assign_reward_called 2628562
scooby_reward_no_pref 1190163
scooby_reward_incorrect 112043
scooby_reward_correct_untimely 1139157
scooby_reward_correct_timely 154004
scooby_reward_out_of_bounds 33195
scooby_reward_tracker_hit 0

scooby_reward_none_low_bw 1190163
scooby_reward_none_high_bw 0
scooby_reward_incorrect_low_bw 112043
scooby_reward_incorrect_high_bw 0
scooby_reward_correct_untimely_low_bw 1139157
scooby_reward_correct_untimely_high_bw 0
scooby_reward_correct_timely_low_bw 154004
scooby_reward_correct_timely_high_bw 0
scooby_reward_out_of_bounds_low_bw 33195
scooby_reward_out_of_bounds_high_bw 0
scooby_reward_tracker_hit_low_bw 0
scooby_reward_tracker_hit_high_bw 0

scooby_reward_1 0,88130,1024613,115683,21291,0,
scooby_reward_3 0,5700,114274,36512,7752,0,
scooby_reward_4 0,1640,75,102,117,0,
scooby_reward_5 0,1836,46,139,124,0,
scooby_reward_10 0,1669,8,183,253,0,
scooby_reward_11 0,1529,7,154,248,0,
scooby_reward_12 0,1416,4,149,290,0,
scooby_reward_22 0,1171,3,134,454,0,
scooby_reward_23 0,1106,2,122,477,0,
scooby_reward_30 0,846,2,96,630,0,
scooby_reward_32 0,909,5,550,1085,0,
scooby_reward_-1 0,1996,25,36,46,0,
scooby_reward_-3 0,2239,57,83,166,0,
scooby_reward_-6 0,1856,36,61,262,0,
scooby_reward_0 1190163,0,0,0,0,0,

scooby_train_called 2628434
scooby_train_compute_reward 1302206

scooby_register_fill_called 1428708
scooby_register_fill_set 247824
scooby_register_fill_set_total 247824

scooby_register_prefetch_hit_called 2632054
scooby_register_prefetch_hit_set 1074263
scooby_register_prefetch_hit_set_total 1074263

scooby_pref_issue_scooby 6183261

learning_engine_featurewise.action.called 2781854
learning_engine_featurewise.action.explore 5086
learning_engine_featurewise.action.exploit 2776768
learning_engine_featurewise.action.fallback 0
learning_engine_featurewise.action.dyn_fallback_saved_bw 0
learning_engine_featurewise.action.dyn_fallback_saved_bw_acc 282
learning_engine_featurewise.action.index_1_explored 329
learning_engine_featurewise.action.index_1_exploited 1401789
learning_engine_featurewise.action.index_3_explored 361
learning_engine_featurewise.action.index_3_exploited 164106
learning_engine_featurewise.action.index_4_explored 356
learning_engine_featurewise.action.index_4_exploited 1586
learning_engine_featurewise.action.index_5_explored 313
learning_engine_featurewise.action.index_5_exploited 1836
learning_engine_featurewise.action.index_10_explored 381
learning_engine_featurewise.action.index_10_exploited 1743
learning_engine_featurewise.action.index_11_explored 345
learning_engine_featurewise.action.index_11_exploited 1603
learning_engine_featurewise.action.index_12_explored 341
learning_engine_featurewise.action.index_12_exploited 1526
learning_engine_featurewise.action.index_22_explored 343
learning_engine_featurewise.action.index_22_exploited 1422
learning_engine_featurewise.action.index_23_explored 335
learning_engine_featurewise.action.index_23_exploited 1381
learning_engine_featurewise.action.index_30_explored 336
learning_engine_featurewise.action.index_30_exploited 1247
learning_engine_featurewise.action.index_32_explored 296
learning_engine_featurewise.action.index_32_exploited 2260
learning_engine_featurewise.action.index_-1_explored 344
learning_engine_featurewise.action.index_-1_exploited 1966
learning_engine_featurewise.action.index_-3_explored 338
learning_engine_featurewise.action.index_-3_exploited 2355
learning_engine_featurewise.action.index_-6_explored 319
learning_engine_featurewise.action.index_-6_exploited 2016
learning_engine_featurewise.action.index_0_explored 349
learning_engine_featurewise.action.index_0_exploited 1189932
learning_engine_featurewise.learn.called 2628434
learning_engine_featurewise.learn.su_skip_PC 0
learning_engine_featurewise.learn.su_skip_PC_Delta 0

learning_engine_featurewise.q_value_histogram.bucket_0 0
learning_engine_featurewise.q_value_histogram.bucket_1 0
learning_engine_featurewise.q_value_histogram.bucket_2 165
learning_engine_featurewise.q_value_histogram.bucket_3 934762
learning_engine_featurewise.q_value_histogram.bucket_4 346388
learning_engine_featurewise.q_value_histogram.bucket_5 23905
learning_engine_featurewise.q_value_histogram.bucket_6 1471548
learning_engine_featurewise.q_value_histogram.bucket_7 0

learning_engine_featurewise.consensus.total 2776768
learning_engine_featurewise.consensus.feature_align_PC 2664324
learning_engine_featurewise.consensus.feature_align_PC_ratio 0.96
learning_engine_featurewise.consensus.feature_align_PC_Delta 2724159
learning_engine_featurewise.consensus.feature_align_PC_Delta_ratio 0.98
learning_engine_featurewise.consensus.feature_align_all 2611715
learning_engine_featurewise.consensus.feature_align_all_ratio 0.94

learning_engine_featurewise.feature_PC_min_weight 1000000.00000000
learning_engine_featurewise.feature_PC_max_weight 0.00000000
learning_engine_featurewise.feature_PC_Delta_min_weight 1000000.00000000
learning_engine_featurewise.feature_PC_Delta_max_weight 0.00000000
unique_pcs 12
unique_pages 23943
unique_trigger_pcs 8
total_bitmaps_seen 0
unique_bitmaps_seen 0

scooby_bw_epochs 1242142
scooby_bw_level_0 415784
scooby_bw_level_1 804834
scooby_bw_level_2 21518
scooby_bw_level_3 6

scooby_ipc_epochs 0
scooby_ipc_level_0 0
scooby_ipc_level_1 0
scooby_ipc_level_2 0
scooby_ipc_level_3 0

scooby_cache_acc_epochs 195265
scooby_cache_acc_level_0 2
scooby_cache_acc_level_1 11
scooby_cache_acc_level_2 44
scooby_cache_acc_level_3 338
scooby_cache_acc_level_4 1397
scooby_cache_acc_level_5 2318
scooby_cache_acc_level_6 5276
scooby_cache_acc_level_7 16282
scooby_cache_acc_level_8 35256
scooby_cache_acc_level_9 134341

Channel_0_RQ_row_buffer_hit 76836
Channel_0_RQ_row_buffer_miss 3454968
Channel_0_WQ_row_buffer_hit 287443
Channel_0_WQ_row_buffer_miss 3198449
Channel_0_WQ_full 0
Channel_0_dbus_congested 4220027

avg_congested_cycle 11

DRAM_bw_pochs 1242142
DRAM_bw_level_0 415784
DRAM_bw_level_1 804834
DRAM_bw_level_2 21518
DRAM_bw_level_3 6
