*************************************************
   ChampSim Multicore Out-of-Order Simulator
   Last compiled: Apr  3 2025 20:54:34
*************************************************
parsing config file: /home/zir/Pythia/config/nopref.ini

trace_0 /home/zir/ChampSim/ML-DPC/ChampSimTraces/spec17/605.mcf-s3.trace.xz
adding L2C_PREFETCHER: NONE
Initialize SHIP state
warmup_instructions 10000000
simulation_instructions 50000000
champsim_seed 166
measure_ipc 0
measure_ipc_epoch 1000
measure_dram_bw 1
measure_dram_bw_epoch 256
measure_cache_acc 1
measure_cache_acc_epoch 1024
l1d_perfect 0
l2c_perfect 0
llc_perfect 0
l1d_semi_perfect 0
l2c_semi_perfect 0
llc_semi_perfect 0
semi_perfect_cache_page_buffer_size 64

num_cpus 1
cpu_freq 4000
dram_io_freq 2400
page_size 4096
block_size 64
max_read_per_cycle 8
max_fill_per_cycle 1
dram_channels 1
log2_dram_channels 0
dram_ranks 1
dram_banks 8
dram_rows 65536
dram_columns 128
dram_row_size 8
dram_size 4096
dram_pages 1048576

fetch_width 6
decode_width 6
exec_width 4
lq_width 2
sq_width 2
retire_width 4
scheduler_size 128
branch_mispredict_penalty 20
rob_size 256
lq_size 72
sq_size 56
num_instr_destinations_sparc 4
num_instr_destinations 2
num_instr_sources 4

itlb_set 16
itlb_way 8
itlb_rq_size 16
itlb_wq_size 16
itlb_pq_size 0
itlb_mshr_size 8
itlb_latency 1

dtlb_set 16
dtlb_way 4
dtlb_rq_size 16
dtlb_wq_size 16
dtlb_pq_size 0
dtlb_mshr_size 8
dtlb_latency 1

stlb_set 128
stlb_way 12
stlb_rq_size 32
stlb_wq_size 32
stlb_pq_size 0
stlb_mshr_size 16
stlb_latency 8

l1i_size 32
l1i_set 64
l1i_way 8
l1i_rq_size 64
l1i_wq_size 64
l1i_pq_size 8
l1i_mshr_size 8
l1i_latency 1

l1d_size 32
l1d_set 64
l1d_way 8
l1d_rq_size 64
l1d_wq_size 64
l1d_pq_size 8
l1d_mshr_size 16
l1d_latency 4

l2c_size 256
l2c_set 512
l2c_way 8
l2c_rq_size 32
l2c_wq_size 32
l2c_pq_size 32
l2c_mshr_size 32
l2c_latency 10

llc_size 2048
llc_set 2048
llc_way 16
llc_rq_size 32
llc_wq_size 32
llc_pq_size 32
llc_mshr_size 64
llc_latency 20

dram_channel_width 8
dram_wq_size 64
dram_rq_size 64
tRP 15
tRCD 15
tCAS 12.5
dram_dbus_turn_around_time 30
dram_write_high_wm 56
dram_write_low_wm 48
min_dram_writes_per_switch 16
dram_mtps 2400
dram_dbus_return_time 13


Heartbeat CPU  0 instructions:    1000000 cycles:    1084509 heartbeat IPC: 0.92208 cumulative IPC: 0.92208 (Simulation time: 0 hr 0 min 2 sec) 
Heartbeat CPU  0 instructions:    2000000 cycles:    2154016 heartbeat IPC: 0.93501 cumulative IPC: 0.92850 (Simulation time: 0 hr 0 min 4 sec) 
Heartbeat CPU  0 instructions:    3000000 cycles:    3228174 heartbeat IPC: 0.93096 cumulative IPC: 0.92932 (Simulation time: 0 hr 0 min 7 sec) 
Heartbeat CPU  0 instructions:    4000000 cycles:    4307588 heartbeat IPC: 0.92643 cumulative IPC: 0.92859 (Simulation time: 0 hr 0 min 9 sec) 
Heartbeat CPU  0 instructions:    5000003 cycles:    5410031 heartbeat IPC: 0.90708 cumulative IPC: 0.92421 (Simulation time: 0 hr 0 min 11 sec) 
Heartbeat CPU  0 instructions:    6000002 cycles:    6506808 heartbeat IPC: 0.91176 cumulative IPC: 0.92211 (Simulation time: 0 hr 0 min 13 sec) 
Heartbeat CPU  0 instructions:    7000000 cycles:    7608477 heartbeat IPC: 0.90771 cumulative IPC: 0.92003 (Simulation time: 0 hr 0 min 15 sec) 
Heartbeat CPU  0 instructions:    8000000 cycles:    8711180 heartbeat IPC: 0.90686 cumulative IPC: 0.91836 (Simulation time: 0 hr 0 min 17 sec) 
Heartbeat CPU  0 instructions:    9000000 cycles:    9790169 heartbeat IPC: 0.92679 cumulative IPC: 0.91929 (Simulation time: 0 hr 0 min 19 sec) 
Heartbeat CPU  0 instructions:   10000002 cycles:   10847630 heartbeat IPC: 0.94566 cumulative IPC: 0.92186 (Simulation time: 0 hr 0 min 22 sec) 

Warmup complete CPU  0 instructions:   10000002 cycles:   10847630 (Simulation time: 0 hr 0 min 22 sec) 

Heartbeat CPU  0 instructions:   11000000 cycles:   18309821 heartbeat IPC: 0.13401 cumulative IPC: 0.13401 (Simulation time: 0 hr 0 min 26 sec) 
Heartbeat CPU  0 instructions:   12000000 cycles:   25866665 heartbeat IPC: 0.13233 cumulative IPC: 0.13316 (Simulation time: 0 hr 0 min 31 sec) 
Heartbeat CPU  0 instructions:   13000002 cycles:   33365634 heartbeat IPC: 0.13335 cumulative IPC: 0.13323 (Simulation time: 0 hr 0 min 35 sec) 
Heartbeat CPU  0 instructions:   14000000 cycles:   40985945 heartbeat IPC: 0.13123 cumulative IPC: 0.13272 (Simulation time: 0 hr 0 min 40 sec) 
Heartbeat CPU  0 instructions:   15000001 cycles:   48420086 heartbeat IPC: 0.13451 cumulative IPC: 0.13308 (Simulation time: 0 hr 0 min 44 sec) 
Heartbeat CPU  0 instructions:   16000000 cycles:   55865508 heartbeat IPC: 0.13431 cumulative IPC: 0.13328 (Simulation time: 0 hr 0 min 48 sec) 
Heartbeat CPU  0 instructions:   17000003 cycles:   63590304 heartbeat IPC: 0.12945 cumulative IPC: 0.13272 (Simulation time: 0 hr 0 min 53 sec) 
Heartbeat CPU  0 instructions:   18000002 cycles:   71228350 heartbeat IPC: 0.13092 cumulative IPC: 0.13249 (Simulation time: 0 hr 0 min 57 sec) 
Heartbeat CPU  0 instructions:   19000000 cycles:   78864820 heartbeat IPC: 0.13095 cumulative IPC: 0.13232 (Simulation time: 0 hr 1 min 1 sec) 
Heartbeat CPU  0 instructions:   20000000 cycles:   86360250 heartbeat IPC: 0.13341 cumulative IPC: 0.13243 (Simulation time: 0 hr 1 min 5 sec) 
Heartbeat CPU  0 instructions:   21000000 cycles:   93775195 heartbeat IPC: 0.13486 cumulative IPC: 0.13265 (Simulation time: 0 hr 1 min 9 sec) 
Heartbeat CPU  0 instructions:   22000002 cycles:  101507174 heartbeat IPC: 0.12933 cumulative IPC: 0.13236 (Simulation time: 0 hr 1 min 13 sec) 
Heartbeat CPU  0 instructions:   23000000 cycles:  109185494 heartbeat IPC: 0.13024 cumulative IPC: 0.13220 (Simulation time: 0 hr 1 min 17 sec) 
Heartbeat CPU  0 instructions:   24000000 cycles:  116878421 heartbeat IPC: 0.12999 cumulative IPC: 0.13204 (Simulation time: 0 hr 1 min 21 sec) 
Heartbeat CPU  0 instructions:   25000000 cycles:  124630163 heartbeat IPC: 0.12900 cumulative IPC: 0.13183 (Simulation time: 0 hr 1 min 25 sec) 
Heartbeat CPU  0 instructions:   26000000 cycles:  132161310 heartbeat IPC: 0.13278 cumulative IPC: 0.13189 (Simulation time: 0 hr 1 min 30 sec) 
Heartbeat CPU  0 instructions:   27000002 cycles:  139605422 heartbeat IPC: 0.13433 cumulative IPC: 0.13203 (Simulation time: 0 hr 1 min 34 sec) 
Heartbeat CPU  0 instructions:   28000000 cycles:  147217448 heartbeat IPC: 0.13137 cumulative IPC: 0.13199 (Simulation time: 0 hr 1 min 38 sec) 
Heartbeat CPU  0 instructions:   29000001 cycles:  154926504 heartbeat IPC: 0.12972 cumulative IPC: 0.13187 (Simulation time: 0 hr 1 min 42 sec) 
Heartbeat CPU  0 instructions:   30000001 cycles:  162726949 heartbeat IPC: 0.12820 cumulative IPC: 0.13168 (Simulation time: 0 hr 1 min 46 sec) 
Heartbeat CPU  0 instructions:   31000002 cycles:  170357396 heartbeat IPC: 0.13105 cumulative IPC: 0.13165 (Simulation time: 0 hr 1 min 50 sec) 
Heartbeat CPU  0 instructions:   32000000 cycles:  177919904 heartbeat IPC: 0.13223 cumulative IPC: 0.13168 (Simulation time: 0 hr 1 min 54 sec) 
Heartbeat CPU  0 instructions:   33000001 cycles:  185698886 heartbeat IPC: 0.12855 cumulative IPC: 0.13154 (Simulation time: 0 hr 1 min 58 sec) 
Heartbeat CPU  0 instructions:   34000002 cycles:  193321534 heartbeat IPC: 0.13119 cumulative IPC: 0.13153 (Simulation time: 0 hr 2 min 2 sec) 
Heartbeat CPU  0 instructions:   35000000 cycles:  200940820 heartbeat IPC: 0.13125 cumulative IPC: 0.13151 (Simulation time: 0 hr 2 min 6 sec) 
Heartbeat CPU  0 instructions:   36000000 cycles:  208485806 heartbeat IPC: 0.13254 cumulative IPC: 0.13155 (Simulation time: 0 hr 2 min 10 sec) 
Heartbeat CPU  0 instructions:   37000001 cycles:  216053661 heartbeat IPC: 0.13214 cumulative IPC: 0.13158 (Simulation time: 0 hr 2 min 15 sec) 
Heartbeat CPU  0 instructions:   38000002 cycles:  223454106 heartbeat IPC: 0.13513 cumulative IPC: 0.13170 (Simulation time: 0 hr 2 min 19 sec) 
Heartbeat CPU  0 instructions:   39000003 cycles:  231020510 heartbeat IPC: 0.13216 cumulative IPC: 0.13171 (Simulation time: 0 hr 2 min 23 sec) 
Heartbeat CPU  0 instructions:   40000000 cycles:  238747236 heartbeat IPC: 0.12942 cumulative IPC: 0.13164 (Simulation time: 0 hr 2 min 27 sec) 
Heartbeat CPU  0 instructions:   41000002 cycles:  246063531 heartbeat IPC: 0.13668 cumulative IPC: 0.13179 (Simulation time: 0 hr 2 min 31 sec) 
Heartbeat CPU  0 instructions:   42000002 cycles:  253696968 heartbeat IPC: 0.13100 cumulative IPC: 0.13177 (Simulation time: 0 hr 2 min 35 sec) 
Heartbeat CPU  0 instructions:   43000002 cycles:  261225260 heartbeat IPC: 0.13283 cumulative IPC: 0.13180 (Simulation time: 0 hr 2 min 39 sec) 
Heartbeat CPU  0 instructions:   44000000 cycles:  268634031 heartbeat IPC: 0.13497 cumulative IPC: 0.13189 (Simulation time: 0 hr 2 min 44 sec) 
Heartbeat CPU  0 instructions:   45000003 cycles:  276270078 heartbeat IPC: 0.13096 cumulative IPC: 0.13187 (Simulation time: 0 hr 2 min 48 sec) 
Heartbeat CPU  0 instructions:   46000000 cycles:  284109885 heartbeat IPC: 0.12755 cumulative IPC: 0.13174 (Simulation time: 0 hr 2 min 52 sec) 
Heartbeat CPU  0 instructions:   47000002 cycles:  291771250 heartbeat IPC: 0.13053 cumulative IPC: 0.13171 (Simulation time: 0 hr 2 min 56 sec) 
Heartbeat CPU  0 instructions:   48000000 cycles:  299407799 heartbeat IPC: 0.13095 cumulative IPC: 0.13169 (Simulation time: 0 hr 3 min 0 sec) 
Heartbeat CPU  0 instructions:   49000000 cycles:  306987085 heartbeat IPC: 0.13194 cumulative IPC: 0.13169 (Simulation time: 0 hr 3 min 4 sec) 
Heartbeat CPU  0 instructions:   50000003 cycles:  314631511 heartbeat IPC: 0.13081 cumulative IPC: 0.13167 (Simulation time: 0 hr 3 min 8 sec) 
Heartbeat CPU  0 instructions:   51000000 cycles:  322292203 heartbeat IPC: 0.13054 cumulative IPC: 0.13164 (Simulation time: 0 hr 3 min 13 sec) 
Heartbeat CPU  0 instructions:   52000000 cycles:  329773351 heartbeat IPC: 0.13367 cumulative IPC: 0.13169 (Simulation time: 0 hr 3 min 17 sec) 
Heartbeat CPU  0 instructions:   53000000 cycles:  337307220 heartbeat IPC: 0.13273 cumulative IPC: 0.13172 (Simulation time: 0 hr 3 min 21 sec) 
Heartbeat CPU  0 instructions:   54000003 cycles:  344813271 heartbeat IPC: 0.13323 cumulative IPC: 0.13175 (Simulation time: 0 hr 3 min 25 sec) 
Heartbeat CPU  0 instructions:   55000002 cycles:  352285077 heartbeat IPC: 0.13384 cumulative IPC: 0.13180 (Simulation time: 0 hr 3 min 29 sec) 
Heartbeat CPU  0 instructions:   56000000 cycles:  359974274 heartbeat IPC: 0.13005 cumulative IPC: 0.13176 (Simulation time: 0 hr 3 min 33 sec) 
Heartbeat CPU  0 instructions:   57000002 cycles:  367560953 heartbeat IPC: 0.13181 cumulative IPC: 0.13176 (Simulation time: 0 hr 3 min 38 sec) 
Heartbeat CPU  0 instructions:   58000000 cycles:  375287178 heartbeat IPC: 0.12943 cumulative IPC: 0.13171 (Simulation time: 0 hr 3 min 42 sec) 
Heartbeat CPU  0 instructions:   59000000 cycles:  382999167 heartbeat IPC: 0.12967 cumulative IPC: 0.13167 (Simulation time: 0 hr 3 min 46 sec) 
Heartbeat CPU  0 instructions:   60000000 cycles:  390370342 heartbeat IPC: 0.13566 cumulative IPC: 0.13174 (Simulation time: 0 hr 3 min 50 sec) 
Finished CPU 0 instructions: 50000003 cycles: 379522961 cumulative IPC: 0.13174 (Simulation time: 0 hr 3 min 50 sec) 

ChampSim completed all CPUs

[ROI Statistics]
Core_0_instructions 50000003
Core_0_cycles 379522961
Core_0_IPC 0.13174

Core_0_branch_prediction_accuracy 92.35942
Core_0_branch_MPKI 6.15474
Core_0_average_ROB_occupancy_at_mispredict 116.94689

Core_0_L1D_total_access 25795849
Core_0_L1D_total_hit 21286886
Core_0_L1D_total_miss 4508963
Core_0_L1D_loads 15934007
Core_0_L1D_load_hit 13611448
Core_0_L1D_load_miss 2322559
Core_0_L1D_RFOs 9861842
Core_0_L1D_RFO_hit 7675438
Core_0_L1D_RFO_miss 2186404
Core_0_L1D_prefetches 0
Core_0_L1D_prefetch_hit 0
Core_0_L1D_prefetch_miss 0
Core_0_L1D_writebacks 0
Core_0_L1D_writeback_hit 0
Core_0_L1D_writeback_miss 0
Core_0_L1D_prefetch_requested 0
Core_0_L1D_prefetch_dropped 0
Core_0_L1D_prefetch_issued 0
Core_0_L1D_prefetch_filled 0
Core_0_L1D_prefetch_useful 0
Core_0_L1D_prefetch_useless 0
Core_0_L1D_prefetch_late 0
Core_0_L1D_average_miss_latency 280.11700

Core_0_L1D_rq_access 20119393
Core_0_L1D_rq_forward 0
Core_0_L1D_rq_merged 3762792
Core_0_L1D_rq_to_cache 16356522
Core_0_L1D_rq_full 0

Core_0_L1D_wq_access 17491234
Core_0_L1D_wq_forward 79
Core_0_L1D_wq_merged 0
Core_0_L1D_wq_to_cache 17491234
Core_0_L1D_wq_full 0

Core_0_L1D_pq_access 0
Core_0_L1D_pq_forward 0
Core_0_L1D_pq_merged 0
Core_0_L1D_pq_to_cache 0
Core_0_L1D_pq_full 0

Core_0_L1D_acc_epochs 265955
Core_0_L1D_acc_level_0 265955
Core_0_L1D_acc_level_1 0
Core_0_L1D_acc_level_2 0
Core_0_L1D_acc_level_3 0
Core_0_L1D_acc_level_4 0
Core_0_L1D_acc_level_5 0
Core_0_L1D_acc_level_6 0
Core_0_L1D_acc_level_7 0
Core_0_L1D_acc_level_8 0
Core_0_L1D_acc_level_9 0

Core_0_L1I_total_access 11013753
Core_0_L1I_total_hit 11013753
Core_0_L1I_total_miss 0
Core_0_L1I_loads 11013753
Core_0_L1I_load_hit 11013753
Core_0_L1I_load_miss 0
Core_0_L1I_RFOs 0
Core_0_L1I_RFO_hit 0
Core_0_L1I_RFO_miss 0
Core_0_L1I_prefetches 0
Core_0_L1I_prefetch_hit 0
Core_0_L1I_prefetch_miss 0
Core_0_L1I_writebacks 0
Core_0_L1I_writeback_hit 0
Core_0_L1I_writeback_miss 0
Core_0_L1I_prefetch_requested 0
Core_0_L1I_prefetch_dropped 0
Core_0_L1I_prefetch_issued 0
Core_0_L1I_prefetch_filled 0
Core_0_L1I_prefetch_useful 0
Core_0_L1I_prefetch_useless 0
Core_0_L1I_prefetch_late 0
Core_0_L1I_average_miss_latency -nan

Core_0_L1I_rq_access 49999769
Core_0_L1I_rq_forward 0
Core_0_L1I_rq_merged 38986016
Core_0_L1I_rq_to_cache 11013753
Core_0_L1I_rq_full 0

Core_0_L1I_wq_access 0
Core_0_L1I_wq_forward 0
Core_0_L1I_wq_merged 0
Core_0_L1I_wq_to_cache 0
Core_0_L1I_wq_full 0

Core_0_L1I_pq_access 0
Core_0_L1I_pq_forward 0
Core_0_L1I_pq_merged 0
Core_0_L1I_pq_to_cache 0
Core_0_L1I_pq_full 0

Core_0_L1I_acc_epochs 265955
Core_0_L1I_acc_level_0 265955
Core_0_L1I_acc_level_1 0
Core_0_L1I_acc_level_2 0
Core_0_L1I_acc_level_3 0
Core_0_L1I_acc_level_4 0
Core_0_L1I_acc_level_5 0
Core_0_L1I_acc_level_6 0
Core_0_L1I_acc_level_7 0
Core_0_L1I_acc_level_8 0
Core_0_L1I_acc_level_9 0

Core_0_L2C_total_access 9017881
Core_0_L2C_total_hit 4683718
Core_0_L2C_total_miss 4334163
Core_0_L2C_loads 2322515
Core_0_L2C_load_hit 176181
Core_0_L2C_load_miss 2146334
Core_0_L2C_RFOs 2186404
Core_0_L2C_RFO_hit 726
Core_0_L2C_RFO_miss 2185678
Core_0_L2C_prefetches 0
Core_0_L2C_prefetch_hit 0
Core_0_L2C_prefetch_miss 0
Core_0_L2C_writebacks 4508962
Core_0_L2C_writeback_hit 4506811
Core_0_L2C_writeback_miss 2151
Core_0_L2C_prefetch_requested 0
Core_0_L2C_prefetch_dropped 0
Core_0_L2C_prefetch_issued 0
Core_0_L2C_prefetch_filled 0
Core_0_L2C_prefetch_useful 0
Core_0_L2C_prefetch_useless 0
Core_0_L2C_prefetch_late 0
Core_0_L2C_average_miss_latency 264.06453

Core_0_L2C_rq_access 4508963
Core_0_L2C_rq_forward 0
Core_0_L2C_rq_merged 0
Core_0_L2C_rq_to_cache 4508919
Core_0_L2C_rq_full 0

Core_0_L2C_wq_access 4508963
Core_0_L2C_wq_forward 44
Core_0_L2C_wq_merged 0
Core_0_L2C_wq_to_cache 4508963
Core_0_L2C_wq_full 0

Core_0_L2C_pq_access 0
Core_0_L2C_pq_forward 0
Core_0_L2C_pq_merged 0
Core_0_L2C_pq_to_cache 0
Core_0_L2C_pq_full 0

Core_0_L2C_acc_epochs 265955
Core_0_L2C_acc_level_0 265955
Core_0_L2C_acc_level_1 0
Core_0_L2C_acc_level_2 0
Core_0_L2C_acc_level_3 0
Core_0_L2C_acc_level_4 0
Core_0_L2C_acc_level_5 0
Core_0_L2C_acc_level_6 0
Core_0_L2C_acc_level_7 0
Core_0_L2C_acc_level_8 0
Core_0_L2C_acc_level_9 0

Core_0_LLC_total_access 8664497
Core_0_LLC_total_hit 1895001
Core_0_LLC_total_miss 6769496
Core_0_LLC_loads 2146288
Core_0_LLC_load_hit 832278
Core_0_LLC_load_miss 1314010
Core_0_LLC_RFOs 2185678
Core_0_LLC_RFO_hit 15280
Core_0_LLC_RFO_miss 2170398
Core_0_LLC_prefetches 0
Core_0_LLC_prefetch_hit 0
Core_0_LLC_prefetch_miss 0
Core_0_LLC_writebacks 4332531
Core_0_LLC_writeback_hit 1047443
Core_0_LLC_writeback_miss 3285088
Core_0_LLC_prefetch_requested 0
Core_0_LLC_prefetch_dropped 0
Core_0_LLC_prefetch_issued 0
Core_0_LLC_prefetch_filled 0
Core_0_LLC_prefetch_useful 0
Core_0_LLC_prefetch_useless 0
Core_0_LLC_prefetch_late 0
Core_0_LLC_average_miss_latency 142.22136

Core_0_LLC_rq_access 4332012
Core_0_LLC_rq_forward 0
Core_0_LLC_rq_merged 0
Core_0_LLC_rq_to_cache 4331966
Core_0_LLC_rq_full 0

Core_0_LLC_wq_access 4332532
Core_0_LLC_wq_forward 46
Core_0_LLC_wq_merged 0
Core_0_LLC_wq_to_cache 4332532
Core_0_LLC_wq_full 0

Core_0_LLC_pq_access 0
Core_0_LLC_pq_forward 0
Core_0_LLC_pq_merged 0
Core_0_LLC_pq_to_cache 0
Core_0_LLC_pq_full 0

Core_0_LLC_acc_epochs 381222
Core_0_LLC_acc_level_0 381222
Core_0_LLC_acc_level_1 0
Core_0_LLC_acc_level_2 0
Core_0_LLC_acc_level_3 0
Core_0_LLC_acc_level_4 0
Core_0_LLC_acc_level_5 0
Core_0_LLC_acc_level_6 0
Core_0_LLC_acc_level_7 0
Core_0_LLC_acc_level_8 0
Core_0_LLC_acc_level_9 0

Core_0_major_page_fault 0
Core_0_minor_page_fault 223664

Channel_0_RQ_row_buffer_hit 40555
Channel_0_RQ_row_buffer_miss 3443727
Channel_0_WQ_row_buffer_hit 808238
Channel_0_WQ_row_buffer_miss 2676266
Channel_0_WQ_full 0
Channel_0_dbus_congested 3773967

avg_congested_cycle 11

DRAM_bw_pochs 1524886
DRAM_bw_level_0 924793
DRAM_bw_level_1 600059
DRAM_bw_level_2 34
DRAM_bw_level_3 0
