*************************************************
   ChampSim Multicore Out-of-Order Simulator
   Last compiled: Apr  3 2025 20:54:34
*************************************************
parsing config file: /home/zir/Pythia/config/pythia.ini

trace_0 /home/zir/ChampSim/ML-DPC/ChampSimTraces/spec17/605.mcf-s5.trace.xz
adding L2C_PREFETCHER: Scooby
Initialize SHIP state
warmup_instructions 10000000
simulation_instructions 50000000
champsim_seed 168
measure_ipc 0
measure_ipc_epoch 1000
measure_dram_bw 1
measure_dram_bw_epoch 256
measure_cache_acc 1
measure_cache_acc_epoch 1024
l1d_perfect 0
l2c_perfect 0
llc_perfect 0
l1d_semi_perfect 0
l2c_semi_perfect 0
llc_semi_perfect 0
semi_perfect_cache_page_buffer_size 64

num_cpus 1
cpu_freq 4000
dram_io_freq 2400
page_size 4096
block_size 64
max_read_per_cycle 8
max_fill_per_cycle 1
dram_channels 1
log2_dram_channels 0
dram_ranks 1
dram_banks 8
dram_rows 65536
dram_columns 128
dram_row_size 8
dram_size 4096
dram_pages 1048576

fetch_width 6
decode_width 6
exec_width 4
lq_width 2
sq_width 2
retire_width 4
scheduler_size 128
branch_mispredict_penalty 20
rob_size 256
lq_size 72
sq_size 56
num_instr_destinations_sparc 4
num_instr_destinations 2
num_instr_sources 4

itlb_set 16
itlb_way 8
itlb_rq_size 16
itlb_wq_size 16
itlb_pq_size 0
itlb_mshr_size 8
itlb_latency 1

dtlb_set 16
dtlb_way 4
dtlb_rq_size 16
dtlb_wq_size 16
dtlb_pq_size 0
dtlb_mshr_size 8
dtlb_latency 1

stlb_set 128
stlb_way 12
stlb_rq_size 32
stlb_wq_size 32
stlb_pq_size 0
stlb_mshr_size 16
stlb_latency 8

l1i_size 32
l1i_set 64
l1i_way 8
l1i_rq_size 64
l1i_wq_size 64
l1i_pq_size 8
l1i_mshr_size 8
l1i_latency 1

l1d_size 32
l1d_set 64
l1d_way 8
l1d_rq_size 64
l1d_wq_size 64
l1d_pq_size 8
l1d_mshr_size 16
l1d_latency 4

l2c_size 256
l2c_set 512
l2c_way 8
l2c_rq_size 32
l2c_wq_size 32
l2c_pq_size 32
l2c_mshr_size 32
l2c_latency 10

llc_size 2048
llc_set 2048
llc_way 16
llc_rq_size 32
llc_wq_size 32
llc_pq_size 32
llc_mshr_size 64
llc_latency 20

dram_channel_width 8
dram_wq_size 64
dram_rq_size 64
tRP 15
tRCD 15
tCAS 12.5
dram_dbus_turn_around_time 30
dram_write_high_wm 56
dram_write_low_wm 48
min_dram_writes_per_switch 16
dram_mtps 2400
dram_dbus_return_time 13

scooby_alpha 0.0065088
scooby_gamma 0.556301
scooby_epsilon 0.00182284
scooby_state_num_bits 10
scooby_max_states 1024
scooby_seed 200
scooby_policy EGreedy
scooby_learning_type SARSA
scooby_actions 1,3,4,5,10,11,12,22,23,30,32,-1,-3,-6,0,
scooby_max_actions 15
scooby_pt_size 256
scooby_st_size 64
scooby_max_pcs 5
scooby_max_offsets 5
scooby_max_deltas 5
scooby_reward_none -4
scooby_reward_incorrect -8
scooby_reward_correct_untimely 12
scooby_reward_correct_timely 20
scooby_brain_zero_init 0
scooby_enable_reward_all 0
scooby_enable_track_multiple 0
scooby_enable_reward_out_of_bounds 1
scooby_reward_out_of_bounds -12
scooby_state_type 1
scooby_state_hash_type 11
scooby_access_debug 0
scooby_print_access_debug 0
scooby_print_access_debug_pc deadbeef
scooby_print_access_debug_pc_count 0
scooby_print_trace 0
scooby_enable_state_action_stats 1
scooby_enable_reward_tracker_hit 0
scooby_reward_tracker_hit -2
scooby_enable_featurewise_engine 1
scooby_pref_degree 1
scooby_enable_dyn_degree 1
scooby_max_to_avg_q_thresholds 0.5,1,2,
scooby_dyn_degrees 1,2,4,4,
scooby_multi_deg_select_type 2
scooby_last_pref_offset_conf_thresholds 1,3,8,
scooby_dyn_degrees_type2 1,2,4,6,
scooby_action_tracker_size 2
scooby_high_bw_thresh 4
scooby_enable_hbw_reward 1
scooby_reward_hbw_correct_timely 20
scooby_reward_hbw_correct_untimely 12
scooby_reward_hbw_incorrect -14
scooby_reward_hbw_none -2
scooby_reward_hbw_out_of_bounds -12
scooby_reward_hbw_tracker_hit -2
scooby_last_pref_offset_conf_thresholds_hbw 1,3,8,
scooby_dyn_degrees_type2_hbw 1,2,4,6,

le_enable_trace 0
le_trace_interval 0
le_trace_file_name 
le_trace_state 0
le_enable_score_plot 0
le_plot_file_name 
le_plot_actions 
le_enable_action_trace 0
le_action_trace_interval 0
le_action_trace_name 
le_enable_action_plot 0

le_featurewise_active_features PC, PC_Delta
le_featurewise_num_tilings 3,3,
le_featurewise_num_tiles 128,128,
le_featurewise_hash_types 2,2,
le_featurewise_enable_tiling_offset 1,1,
le_featurewise_max_q_thresh 0.5
le_featurewise_enable_action_fallback 1
le_featurewise_feature_weights 1,1,
le_featurewise_enable_dynamic_weight 0
le_featurewise_weight_gradient 0.001
le_featurewise_disable_adjust_weight_all_features_align 1
le_featurewise_selective_update 0
le_featurewise_pooling_type 2
le_featurewise_enable_dyn_action_fallback 1
le_featurewise_bw_acc_check_level 1
le_featurewise_acc_thresh 2
le_featurewise_enable_trace 0
le_featurewise_trace_feature_type 0
le_featurewise_trace_feature 
le_featurewise_trace_interval 0
le_featurewise_trace_record_count 0
le_featurewise_trace_file_name 
le_featurewise_enable_score_plot 0
le_featurewise_plot_actions 
le_featurewise_plot_file_name 


Heartbeat CPU  0 instructions:    1000001 cycles:     556719 heartbeat IPC: 1.79624 cumulative IPC: 1.79624 (Simulation time: 0 hr 0 min 2 sec) 
Heartbeat CPU  0 instructions:    2000002 cycles:    1105491 heartbeat IPC: 1.82225 cumulative IPC: 1.80915 (Simulation time: 0 hr 0 min 4 sec) 
Heartbeat CPU  0 instructions:    3000001 cycles:    1658111 heartbeat IPC: 1.80956 cumulative IPC: 1.80929 (Simulation time: 0 hr 0 min 5 sec) 
Heartbeat CPU  0 instructions:    4000000 cycles:    2210027 heartbeat IPC: 1.81187 cumulative IPC: 1.80993 (Simulation time: 0 hr 0 min 7 sec) 
Heartbeat CPU  0 instructions:    5000002 cycles:    2765788 heartbeat IPC: 1.79934 cumulative IPC: 1.80780 (Simulation time: 0 hr 0 min 9 sec) 
Heartbeat CPU  0 instructions:    6000001 cycles:    3319782 heartbeat IPC: 1.80507 cumulative IPC: 1.80735 (Simulation time: 0 hr 0 min 11 sec) 
Heartbeat CPU  0 instructions:    7000001 cycles:    3891648 heartbeat IPC: 1.74866 cumulative IPC: 1.79872 (Simulation time: 0 hr 0 min 13 sec) 
Heartbeat CPU  0 instructions:    8000000 cycles:    4445232 heartbeat IPC: 1.80641 cumulative IPC: 1.79968 (Simulation time: 0 hr 0 min 15 sec) 
Heartbeat CPU  0 instructions:    9000000 cycles:    4996433 heartbeat IPC: 1.81422 cumulative IPC: 1.80129 (Simulation time: 0 hr 0 min 17 sec) 
Heartbeat CPU  0 instructions:   10000001 cycles:    5545862 heartbeat IPC: 1.82007 cumulative IPC: 1.80315 (Simulation time: 0 hr 0 min 19 sec) 

Warmup complete CPU  0 instructions:   10000001 cycles:    5545862 (Simulation time: 0 hr 0 min 19 sec) 

Heartbeat CPU  0 instructions:   11000003 cycles:    7830208 heartbeat IPC: 0.43776 cumulative IPC: 0.43776 (Simulation time: 0 hr 0 min 22 sec) 
Heartbeat CPU  0 instructions:   12000000 cycles:    9718249 heartbeat IPC: 0.52965 cumulative IPC: 0.47934 (Simulation time: 0 hr 0 min 24 sec) 
Heartbeat CPU  0 instructions:   13000000 cycles:   11411929 heartbeat IPC: 0.59043 cumulative IPC: 0.51142 (Simulation time: 0 hr 0 min 27 sec) 
Heartbeat CPU  0 instructions:   14000000 cycles:   13218223 heartbeat IPC: 0.55362 cumulative IPC: 0.52135 (Simulation time: 0 hr 0 min 29 sec) 
Heartbeat CPU  0 instructions:   15000000 cycles:   17430886 heartbeat IPC: 0.23738 cumulative IPC: 0.42070 (Simulation time: 0 hr 0 min 34 sec) 
Heartbeat CPU  0 instructions:   16000000 cycles:   20647863 heartbeat IPC: 0.31085 cumulative IPC: 0.39730 (Simulation time: 0 hr 0 min 37 sec) 
Heartbeat CPU  0 instructions:   17000002 cycles:   23275690 heartbeat IPC: 0.38054 cumulative IPC: 0.39481 (Simulation time: 0 hr 0 min 40 sec) 
Heartbeat CPU  0 instructions:   18000000 cycles:   25713480 heartbeat IPC: 0.41021 cumulative IPC: 0.39668 (Simulation time: 0 hr 0 min 43 sec) 
Heartbeat CPU  0 instructions:   19000000 cycles:   27670612 heartbeat IPC: 0.51095 cumulative IPC: 0.40678 (Simulation time: 0 hr 0 min 46 sec) 
Heartbeat CPU  0 instructions:   20000000 cycles:   29900456 heartbeat IPC: 0.44846 cumulative IPC: 0.41060 (Simulation time: 0 hr 0 min 48 sec) 
Heartbeat CPU  0 instructions:   21000001 cycles:   31855542 heartbeat IPC: 0.51149 cumulative IPC: 0.41810 (Simulation time: 0 hr 0 min 51 sec) 
Heartbeat CPU  0 instructions:   22000000 cycles:   33567352 heartbeat IPC: 0.58418 cumulative IPC: 0.42824 (Simulation time: 0 hr 0 min 53 sec) 
Heartbeat CPU  0 instructions:   23000000 cycles:   37330939 heartbeat IPC: 0.26570 cumulative IPC: 0.40900 (Simulation time: 0 hr 0 min 57 sec) 
Heartbeat CPU  0 instructions:   24000000 cycles:   40662535 heartbeat IPC: 0.30016 cumulative IPC: 0.39867 (Simulation time: 0 hr 1 min 1 sec) 
Heartbeat CPU  0 instructions:   25000003 cycles:   42377953 heartbeat IPC: 0.58295 cumulative IPC: 0.40725 (Simulation time: 0 hr 1 min 4 sec) 
Heartbeat CPU  0 instructions:   26000003 cycles:   44046364 heartbeat IPC: 0.59937 cumulative IPC: 0.41558 (Simulation time: 0 hr 1 min 6 sec) 
Heartbeat CPU  0 instructions:   27000003 cycles:   45863627 heartbeat IPC: 0.55028 cumulative IPC: 0.42165 (Simulation time: 0 hr 1 min 8 sec) 
Heartbeat CPU  0 instructions:   28000000 cycles:   47720831 heartbeat IPC: 0.53844 cumulative IPC: 0.42679 (Simulation time: 0 hr 1 min 11 sec) 
Heartbeat CPU  0 instructions:   29000001 cycles:   49590665 heartbeat IPC: 0.53481 cumulative IPC: 0.43138 (Simulation time: 0 hr 1 min 13 sec) 
Heartbeat CPU  0 instructions:   30000002 cycles:   52592727 heartbeat IPC: 0.33310 cumulative IPC: 0.42511 (Simulation time: 0 hr 1 min 17 sec) 
Heartbeat CPU  0 instructions:   31000001 cycles:   54415508 heartbeat IPC: 0.54861 cumulative IPC: 0.42971 (Simulation time: 0 hr 1 min 19 sec) 
Heartbeat CPU  0 instructions:   32000000 cycles:   56581440 heartbeat IPC: 0.46169 cumulative IPC: 0.43107 (Simulation time: 0 hr 1 min 22 sec) 
Heartbeat CPU  0 instructions:   33000002 cycles:   58633826 heartbeat IPC: 0.48724 cumulative IPC: 0.43324 (Simulation time: 0 hr 1 min 24 sec) 
Heartbeat CPU  0 instructions:   34000002 cycles:   60477135 heartbeat IPC: 0.54250 cumulative IPC: 0.43691 (Simulation time: 0 hr 1 min 27 sec) 
Heartbeat CPU  0 instructions:   35000000 cycles:   62548625 heartbeat IPC: 0.48274 cumulative IPC: 0.43858 (Simulation time: 0 hr 1 min 29 sec) 
Heartbeat CPU  0 instructions:   36000000 cycles:   64723493 heartbeat IPC: 0.45980 cumulative IPC: 0.43936 (Simulation time: 0 hr 1 min 32 sec) 
Heartbeat CPU  0 instructions:   37000001 cycles:   67990802 heartbeat IPC: 0.30606 cumulative IPC: 0.43238 (Simulation time: 0 hr 1 min 36 sec) 
Heartbeat CPU  0 instructions:   38000000 cycles:   70105543 heartbeat IPC: 0.47287 cumulative IPC: 0.43371 (Simulation time: 0 hr 1 min 38 sec) 
Heartbeat CPU  0 instructions:   39000002 cycles:   71790808 heartbeat IPC: 0.59338 cumulative IPC: 0.43777 (Simulation time: 0 hr 1 min 40 sec) 
Heartbeat CPU  0 instructions:   40000000 cycles:   73995665 heartbeat IPC: 0.45354 cumulative IPC: 0.43828 (Simulation time: 0 hr 1 min 43 sec) 
Heartbeat CPU  0 instructions:   41000002 cycles:   75784908 heartbeat IPC: 0.55890 cumulative IPC: 0.44135 (Simulation time: 0 hr 1 min 46 sec) 
Heartbeat CPU  0 instructions:   42000003 cycles:   77519422 heartbeat IPC: 0.57653 cumulative IPC: 0.44461 (Simulation time: 0 hr 1 min 48 sec) 
Heartbeat CPU  0 instructions:   43000001 cycles:   79245320 heartbeat IPC: 0.57941 cumulative IPC: 0.44776 (Simulation time: 0 hr 1 min 50 sec) 
Heartbeat CPU  0 instructions:   44000000 cycles:   81625514 heartbeat IPC: 0.42013 cumulative IPC: 0.44690 (Simulation time: 0 hr 1 min 53 sec) 
Heartbeat CPU  0 instructions:   45000001 cycles:   86119655 heartbeat IPC: 0.22251 cumulative IPC: 0.43438 (Simulation time: 0 hr 1 min 58 sec) 
Heartbeat CPU  0 instructions:   46000000 cycles:   88632106 heartbeat IPC: 0.39802 cumulative IPC: 0.43328 (Simulation time: 0 hr 2 min 1 sec) 
Heartbeat CPU  0 instructions:   47000003 cycles:   90888966 heartbeat IPC: 0.44309 cumulative IPC: 0.43354 (Simulation time: 0 hr 2 min 4 sec) 
Heartbeat CPU  0 instructions:   48000000 cycles:   93337875 heartbeat IPC: 0.40834 cumulative IPC: 0.43284 (Simulation time: 0 hr 2 min 6 sec) 
Heartbeat CPU  0 instructions:   49000001 cycles:   95485118 heartbeat IPC: 0.46571 cumulative IPC: 0.43363 (Simulation time: 0 hr 2 min 9 sec) 
Heartbeat CPU  0 instructions:   50000003 cycles:   97264142 heartbeat IPC: 0.56211 cumulative IPC: 0.43612 (Simulation time: 0 hr 2 min 11 sec) 
Heartbeat CPU  0 instructions:   51000002 cycles:   99370444 heartbeat IPC: 0.47477 cumulative IPC: 0.43699 (Simulation time: 0 hr 2 min 14 sec) 
Heartbeat CPU  0 instructions:   52000000 cycles:  101648549 heartbeat IPC: 0.43896 cumulative IPC: 0.43703 (Simulation time: 0 hr 2 min 17 sec) 
Heartbeat CPU  0 instructions:   53000000 cycles:  104328669 heartbeat IPC: 0.37312 cumulative IPC: 0.43530 (Simulation time: 0 hr 2 min 20 sec) 
Heartbeat CPU  0 instructions:   54000001 cycles:  106056915 heartbeat IPC: 0.57862 cumulative IPC: 0.43776 (Simulation time: 0 hr 2 min 23 sec) 
Heartbeat CPU  0 instructions:   55000000 cycles:  107881722 heartbeat IPC: 0.54800 cumulative IPC: 0.43973 (Simulation time: 0 hr 2 min 25 sec) 
Heartbeat CPU  0 instructions:   56000000 cycles:  109680516 heartbeat IPC: 0.55593 cumulative IPC: 0.44174 (Simulation time: 0 hr 2 min 27 sec) 
Heartbeat CPU  0 instructions:   57000002 cycles:  111424797 heartbeat IPC: 0.57330 cumulative IPC: 0.44390 (Simulation time: 0 hr 2 min 30 sec) 
Heartbeat CPU  0 instructions:   58000000 cycles:  113119231 heartbeat IPC: 0.59017 cumulative IPC: 0.44621 (Simulation time: 0 hr 2 min 32 sec) 
Heartbeat CPU  0 instructions:   59000002 cycles:  115246811 heartbeat IPC: 0.47002 cumulative IPC: 0.44667 (Simulation time: 0 hr 2 min 35 sec) 
Heartbeat CPU  0 instructions:   60000000 cycles:  119087628 heartbeat IPC: 0.26036 cumulative IPC: 0.44037 (Simulation time: 0 hr 2 min 39 sec) 
Finished CPU 0 instructions: 50000000 cycles: 113541774 cumulative IPC: 0.44037 (Simulation time: 0 hr 2 min 39 sec) 

ChampSim completed all CPUs

[ROI Statistics]
Core_0_instructions 50000000
Core_0_cycles 113541774
Core_0_IPC 0.44037

Core_0_branch_prediction_accuracy 98.57513
Core_0_branch_MPKI 1.38344
Core_0_average_ROB_occupancy_at_mispredict 210.93379

Core_0_L1D_total_access 23834472
Core_0_L1D_total_hit 22599460
Core_0_L1D_total_miss 1235012
Core_0_L1D_loads 9995965
Core_0_L1D_load_hit 8870193
Core_0_L1D_load_miss 1125772
Core_0_L1D_RFOs 13838507
Core_0_L1D_RFO_hit 13729267
Core_0_L1D_RFO_miss 109240
Core_0_L1D_prefetches 0
Core_0_L1D_prefetch_hit 0
Core_0_L1D_prefetch_miss 0
Core_0_L1D_writebacks 0
Core_0_L1D_writeback_hit 0
Core_0_L1D_writeback_miss 0
Core_0_L1D_prefetch_requested 0
Core_0_L1D_prefetch_dropped 0
Core_0_L1D_prefetch_issued 0
Core_0_L1D_prefetch_filled 0
Core_0_L1D_prefetch_useful 0
Core_0_L1D_prefetch_useless 0
Core_0_L1D_prefetch_late 0
Core_0_L1D_average_miss_latency 111.47147

Core_0_L1D_rq_access 15548052
Core_0_L1D_rq_forward 0
Core_0_L1D_rq_merged 5486442
Core_0_L1D_rq_to_cache 10061610
Core_0_L1D_rq_full 0

Core_0_L1D_wq_access 14570722
Core_0_L1D_wq_forward 0
Core_0_L1D_wq_merged 394629
Core_0_L1D_wq_to_cache 14176093
Core_0_L1D_wq_full 0

Core_0_L1D_pq_access 0
Core_0_L1D_pq_forward 0
Core_0_L1D_pq_merged 0
Core_0_L1D_pq_to_cache 0
Core_0_L1D_pq_full 0

Core_0_L1D_acc_epochs 112961
Core_0_L1D_acc_level_0 112961
Core_0_L1D_acc_level_1 0
Core_0_L1D_acc_level_2 0
Core_0_L1D_acc_level_3 0
Core_0_L1D_acc_level_4 0
Core_0_L1D_acc_level_5 0
Core_0_L1D_acc_level_6 0
Core_0_L1D_acc_level_7 0
Core_0_L1D_acc_level_8 0
Core_0_L1D_acc_level_9 0

Core_0_L1I_total_access 15012356
Core_0_L1I_total_hit 15012356
Core_0_L1I_total_miss 0
Core_0_L1I_loads 15012356
Core_0_L1I_load_hit 15012356
Core_0_L1I_load_miss 0
Core_0_L1I_RFOs 0
Core_0_L1I_RFO_hit 0
Core_0_L1I_RFO_miss 0
Core_0_L1I_prefetches 0
Core_0_L1I_prefetch_hit 0
Core_0_L1I_prefetch_miss 0
Core_0_L1I_writebacks 0
Core_0_L1I_writeback_hit 0
Core_0_L1I_writeback_miss 0
Core_0_L1I_prefetch_requested 0
Core_0_L1I_prefetch_dropped 0
Core_0_L1I_prefetch_issued 0
Core_0_L1I_prefetch_filled 0
Core_0_L1I_prefetch_useful 0
Core_0_L1I_prefetch_useless 0
Core_0_L1I_prefetch_late 0
Core_0_L1I_average_miss_latency -nan

Core_0_L1I_rq_access 50000004
Core_0_L1I_rq_forward 0
Core_0_L1I_rq_merged 34987648
Core_0_L1I_rq_to_cache 15012356
Core_0_L1I_rq_full 0

Core_0_L1I_wq_access 0
Core_0_L1I_wq_forward 0
Core_0_L1I_wq_merged 0
Core_0_L1I_wq_to_cache 0
Core_0_L1I_wq_full 0

Core_0_L1I_pq_access 0
Core_0_L1I_pq_forward 0
Core_0_L1I_pq_merged 0
Core_0_L1I_pq_to_cache 0
Core_0_L1I_pq_full 0

Core_0_L1I_acc_epochs 112961
Core_0_L1I_acc_level_0 112961
Core_0_L1I_acc_level_1 0
Core_0_L1I_acc_level_2 0
Core_0_L1I_acc_level_3 0
Core_0_L1I_acc_level_4 0
Core_0_L1I_acc_level_5 0
Core_0_L1I_acc_level_6 0
Core_0_L1I_acc_level_7 0
Core_0_L1I_acc_level_8 0
Core_0_L1I_acc_level_9 0

Core_0_L2C_total_access 4201170
Core_0_L2C_total_hit 2459293
Core_0_L2C_total_miss 1741877
Core_0_L2C_loads 1125768
Core_0_L2C_load_hit 647908
Core_0_L2C_load_miss 477860
Core_0_L2C_RFOs 109237
Core_0_L2C_RFO_hit 14340
Core_0_L2C_RFO_miss 94897
Core_0_L2C_prefetches 2637917
Core_0_L2C_prefetch_hit 1470282
Core_0_L2C_prefetch_miss 1167635
Core_0_L2C_writebacks 328248
Core_0_L2C_writeback_hit 326763
Core_0_L2C_writeback_miss 1485
Core_0_L2C_prefetch_requested 3953542
Core_0_L2C_prefetch_dropped 2412
Core_0_L2C_prefetch_issued 3951130
Core_0_L2C_prefetch_filled 1340031
Core_0_L2C_prefetch_useful 717305
Core_0_L2C_prefetch_useless 621591
Core_0_L2C_prefetch_late 114817
Core_0_L2C_average_miss_latency 216.21881

Core_0_L2C_rq_access 1235015
Core_0_L2C_rq_forward 0
Core_0_L2C_rq_merged 0
Core_0_L2C_rq_to_cache 1235008
Core_0_L2C_rq_full 0

Core_0_L2C_wq_access 328248
Core_0_L2C_wq_forward 10
Core_0_L2C_wq_merged 0
Core_0_L2C_wq_to_cache 328248
Core_0_L2C_wq_full 0

Core_0_L2C_pq_access 3951130
Core_0_L2C_pq_forward 0
Core_0_L2C_pq_merged 141220
Core_0_L2C_pq_to_cache 3809907
Core_0_L2C_pq_full 0

Core_0_L2C_acc_epochs 112961
Core_0_L2C_acc_level_0 12
Core_0_L2C_acc_level_1 455
Core_0_L2C_acc_level_2 2611
Core_0_L2C_acc_level_3 6567
Core_0_L2C_acc_level_4 22372
Core_0_L2C_acc_level_5 20941
Core_0_L2C_acc_level_6 15679
Core_0_L2C_acc_level_7 12191
Core_0_L2C_acc_level_8 8626
Core_0_L2C_acc_level_9 23507

Core_0_LLC_total_access 2040354
Core_0_LLC_total_hit 64633
Core_0_LLC_total_miss 1975721
Core_0_LLC_loads 365669
Core_0_LLC_load_hit 4561
Core_0_LLC_load_miss 361108
Core_0_LLC_RFOs 93190
Core_0_LLC_RFO_hit 127
Core_0_LLC_RFO_miss 93063
Core_0_LLC_prefetches 1281532
Core_0_LLC_prefetch_hit 8563
Core_0_LLC_prefetch_miss 1272969
Core_0_LLC_writebacks 299963
Core_0_LLC_writeback_hit 51382
Core_0_LLC_writeback_miss 248581
Core_0_LLC_prefetch_requested 0
Core_0_LLC_prefetch_dropped 0
Core_0_LLC_prefetch_issued 0
Core_0_LLC_prefetch_filled 1445074
Core_0_LLC_prefetch_useful 1411
Core_0_LLC_prefetch_useless 1439079
Core_0_LLC_prefetch_late 0
Core_0_LLC_average_miss_latency 169.03711

Core_0_LLC_rq_access 458862
Core_0_LLC_rq_forward 0
Core_0_LLC_rq_merged 0
Core_0_LLC_rq_to_cache 458862
Core_0_LLC_rq_full 0

Core_0_LLC_wq_access 299963
Core_0_LLC_wq_forward 1
Core_0_LLC_wq_merged 0
Core_0_LLC_wq_to_cache 299963
Core_0_LLC_wq_full 0

Core_0_LLC_pq_access 1454850
Core_0_LLC_pq_forward 0
Core_0_LLC_pq_merged 0
Core_0_LLC_pq_to_cache 1454849
Core_0_LLC_pq_full 0

Core_0_LLC_acc_epochs 116297
Core_0_LLC_acc_level_0 115470
Core_0_LLC_acc_level_1 323
Core_0_LLC_acc_level_2 159
Core_0_LLC_acc_level_3 74
Core_0_LLC_acc_level_4 28
Core_0_LLC_acc_level_5 82
Core_0_LLC_acc_level_6 28
Core_0_LLC_acc_level_7 23
Core_0_LLC_acc_level_8 12
Core_0_LLC_acc_level_9 98

Core_0_major_page_fault 0
Core_0_minor_page_fault 18172

scooby_st_lookup 1290209
scooby_st_hit 1248035
scooby_st_evict 42110
scooby_st_insert 42174
scooby_st_streaming 0

scooby_predict_called 1290209
scooby_predict_out_of_bounds 31813
scooby_predict_action_1 573124
scooby_predict_issue_action_1 500002
scooby_predict_hit_action_1 73122
scooby_predict_out_of_bounds_action_1 9857
scooby_predict_action_3 599
scooby_predict_issue_action_3 345
scooby_predict_hit_action_3 254
scooby_predict_out_of_bounds_action_3 28
scooby_predict_action_4 24665
scooby_predict_issue_action_4 21063
scooby_predict_hit_action_4 3602
scooby_predict_out_of_bounds_action_4 1495
scooby_predict_action_5 356
scooby_predict_issue_action_5 292
scooby_predict_hit_action_5 64
scooby_predict_out_of_bounds_action_5 25
scooby_predict_action_10 2873
scooby_predict_issue_action_10 2634
scooby_predict_hit_action_10 239
scooby_predict_out_of_bounds_action_10 497
scooby_predict_action_11 286
scooby_predict_issue_action_11 218
scooby_predict_hit_action_11 68
scooby_predict_out_of_bounds_action_11 49
scooby_predict_action_12 269
scooby_predict_issue_action_12 216
scooby_predict_hit_action_12 53
scooby_predict_out_of_bounds_action_12 66
scooby_predict_action_22 232
scooby_predict_issue_action_22 188
scooby_predict_hit_action_22 44
scooby_predict_out_of_bounds_action_22 121
scooby_predict_action_23 210
scooby_predict_issue_action_23 175
scooby_predict_hit_action_23 35
scooby_predict_out_of_bounds_action_23 123
scooby_predict_action_30 129
scooby_predict_issue_action_30 100
scooby_predict_hit_action_30 29
scooby_predict_out_of_bounds_action_30 181
scooby_predict_action_32 149
scooby_predict_issue_action_32 120
scooby_predict_hit_action_32 29
scooby_predict_out_of_bounds_action_32 153
scooby_predict_action_-1 367440
scooby_predict_issue_action_-1 346008
scooby_predict_hit_action_-1 21432
scooby_predict_out_of_bounds_action_-1 5881
scooby_predict_action_-3 261826
scooby_predict_issue_action_-3 170632
scooby_predict_hit_action_-3 91194
scooby_predict_out_of_bounds_action_-3 13320
scooby_predict_action_-6 190
scooby_predict_issue_action_-6 164
scooby_predict_hit_action_-6 26
scooby_predict_out_of_bounds_action_-6 17
scooby_predict_action_0 26048
scooby_predict_issue_action_0 0
scooby_predict_hit_action_0 0
scooby_predict_out_of_bounds_action_0 0
scooby_predict_multi_deg_called 787911
scooby_predict_predicted 3953542
scooby_predict_multi_deg 2911385
scooby_predict_multi_deg_2 770814
scooby_predict_multi_deg_3 651994
scooby_predict_multi_deg_4 637959
scooby_predict_multi_deg_5 430765
scooby_predict_multi_deg_6 419853
scooby_predict_multi_deg_7 0
scooby_predict_multi_deg_8 0
scooby_predict_multi_deg_9 0
scooby_predict_multi_deg_10 0
scooby_predict_multi_deg_11 0
scooby_predict_multi_deg_12 0
scooby_predict_multi_deg_13 0
scooby_predict_multi_deg_14 0
scooby_predict_multi_deg_15 0
scooby_predict_multi_deg_16 0

scooby_selected_deg_1 254246
scooby_selected_deg_2 107484
scooby_selected_deg_3 0
scooby_selected_deg_4 203351
scooby_selected_deg_5 0
scooby_selected_deg_6 477076
scooby_selected_deg_7 0
scooby_selected_deg_8 0
scooby_selected_deg_9 0
scooby_selected_deg_10 0
scooby_selected_deg_11 0
scooby_selected_deg_12 0
scooby_selected_deg_13 0
scooby_selected_deg_14 0
scooby_selected_deg_15 0
scooby_selected_deg_16 0

scooby_state_402dc3|63|0 4344,0,1,0,1,1,0,0,0,0,0,0,0,2,0,4349,
scooby_state_402dc3|62|0 4312,0,1,0,2,2,1,0,0,0,0,0,1,2,0,4321,
scooby_state_402dc3|61|0 4265,0,0,0,2,1,0,0,0,1,1,0,0,0,2,4272,
scooby_state_402dfb|63|0 582,0,0,0,1,0,0,0,0,0,0,2876,0,1,0,3460,
scooby_state_402dc3|60|-3 2707,0,1,2,0,0,1,2,0,0,0,1,0,0,0,2714,
scooby_state_402dc3|59|-4 2626,0,0,1,0,1,0,1,0,1,0,0,1,0,1,2632,
scooby_state_403083|36|1 1950,3,4,2,4,1,4,3,1,2,2,3,2,1,598,2580,
scooby_state_403083|42|1 2030,8,8,7,10,3,5,7,2,2,2,5,13,5,461,2568,
scooby_state_403083|22|1 1947,2,4,2,3,0,2,1,0,2,1,2,0,2,579,2547,
scooby_state_403083|48|1 1935,4,8,5,6,5,2,1,3,3,4,4,4,1,556,2541,
scooby_state_403083|7|1 1705,1,4,4,2,7,3,1,4,1,4,3,3,2,728,2472,
scooby_state_402dc3|56|-4 2432,0,0,0,0,0,0,0,0,1,1,1,1,0,0,2436,
scooby_state_403083|31|1 1733,3,6,4,4,5,3,2,1,3,1,2,0,1,645,2413,
scooby_state_402dc3|57|-4 2388,1,0,0,0,0,2,0,0,0,0,2,0,2,0,2395,
scooby_state_403083|44|1 1919,1,2,3,3,6,5,0,2,3,5,6,4,2,409,2370,
scooby_state_403083|10|1 1928,1,2,2,1,0,0,0,0,1,1,1,0,0,429,2366,
scooby_state_403083|4|1 1869,1,4,3,0,1,0,0,0,2,2,2,0,1,463,2348,
scooby_state_402dc3|58|-4 2345,0,0,0,1,1,0,0,0,0,0,0,1,0,0,2348,
scooby_state_403083|40|1 1941,0,1,0,4,0,0,0,0,2,0,1,2,2,379,2332,
scooby_state_403083|52|1 1905,0,2,3,2,1,2,2,1,0,1,2,3,1,400,2325,
scooby_state_403083|24|1 1883,1,4,3,0,2,0,1,3,2,2,0,1,1,414,2317,
scooby_state_403083|50|1 1908,3,2,3,1,0,2,1,2,1,1,0,1,1,389,2315,
scooby_state_402dc3|47|-4 2294,0,0,2,1,0,1,0,0,1,1,0,0,0,1,2301,
scooby_state_403083|41|1 1788,2,4,6,6,5,3,3,4,4,4,5,6,3,444,2287,
scooby_state_403083|55|1 1682,3,4,4,3,1,2,1,4,4,3,4,4,3,564,2286,
scooby_state_403083|32|1 1899,1,0,0,0,0,0,0,0,0,0,0,0,0,383,2283,
scooby_state_403083|2|1 1865,1,1,1,2,1,1,0,2,0,0,1,2,2,402,2281,
scooby_state_403083|18|1 1892,1,1,0,0,0,0,1,0,0,1,0,0,0,382,2278,
scooby_state_403083|16|1 1897,0,0,1,0,0,1,3,0,1,0,0,1,2,371,2277,
scooby_state_403083|14|1 1918,0,1,1,1,2,1,1,0,0,2,0,1,0,336,2264,
scooby_state_403083|38|1 1879,0,0,0,0,0,1,0,1,3,0,0,1,0,378,2263,
scooby_state_402dc3|55|-4 2256,0,0,0,0,0,0,0,1,0,0,0,0,0,0,2257,
scooby_state_403083|60|1 1928,0,0,1,0,1,2,0,0,0,1,0,0,1,322,2256,
scooby_state_403083|20|1 1885,1,1,2,2,3,1,0,1,2,2,2,0,2,351,2255,
scooby_state_403083|46|1 1842,5,3,3,5,2,2,2,2,0,1,1,3,2,381,2254,
scooby_state_403083|58|1 1884,3,3,2,1,1,1,0,2,1,2,0,0,0,348,2248,
scooby_state_403083|34|1 1843,1,1,0,0,0,2,0,0,1,0,1,0,0,397,2246,
scooby_state_403083|6|1 1863,1,1,0,0,0,1,2,1,1,0,1,1,1,367,2240,
scooby_state_403083|54|1 1856,0,0,0,1,4,0,1,0,0,1,1,0,1,364,2229,
scooby_state_403083|8|1 1874,1,0,0,1,1,0,0,0,0,0,0,0,1,344,2222,
scooby_state_403083|56|1 1867,0,2,2,0,2,1,1,0,0,0,0,1,0,340,2216,
scooby_state_403083|28|1 1877,0,1,0,1,1,1,0,0,1,1,0,0,1,328,2212,
scooby_state_403083|12|1 1834,3,4,2,2,0,3,0,2,1,1,2,1,0,353,2208,
scooby_state_403083|26|1 1859,1,0,0,0,0,0,0,0,0,0,0,0,5,328,2193,
scooby_state_402dc3|31|-4 2183,0,0,0,0,0,0,0,0,0,0,0,1,0,0,2184,
scooby_state_403083|62|1 1829,1,0,0,2,0,0,0,0,0,0,2,1,0,347,2182,
scooby_state_402dc3|53|-4 2174,1,0,0,1,0,0,0,1,1,0,0,0,0,0,2178,
scooby_state_403083|30|1 1831,0,0,0,1,1,1,0,0,0,0,0,2,1,339,2176,
scooby_state_402dc3|52|-4 2165,0,0,0,0,0,1,1,0,0,0,0,0,1,1,2169,
scooby_state_402dc3|43|-4 2164,0,0,0,0,0,0,0,0,0,2,0,0,1,0,2167,
scooby_state_402dc0|25|-1 1,0,2,0,0,2,0,1,0,0,1,2151,0,0,0,2158,
scooby_state_402dc0|26|-1 1,0,2,0,0,1,0,1,1,0,1,2151,0,0,0,2158,
scooby_state_402dc0|28|-1 1,0,1,0,0,1,0,1,1,0,1,2152,0,0,0,2158,
scooby_state_402dc0|29|-1 1,0,1,1,3,1,0,2,1,0,1,2147,0,0,0,2158,
scooby_state_402dc0|31|-1 2,0,1,0,1,1,0,1,0,0,1,2151,0,0,0,2158,
scooby_state_402dc0|30|-1 1,1,1,0,0,1,1,1,0,0,1,2151,0,0,0,2158,
scooby_state_402dc0|27|-1 1,0,1,0,0,1,0,1,0,0,1,2152,0,0,1,2158,
scooby_state_402dc0|20|-1 1,0,0,1,1,1,0,1,1,0,1,2150,0,0,0,2157,
scooby_state_402dc0|3|-1 0,1,0,2,0,0,2,1,1,0,0,2150,0,0,0,2157,
scooby_state_402dc0|37|-1 0,0,1,1,1,1,0,2,1,1,0,2148,0,0,1,2157,
scooby_state_402dc0|38|-1 0,0,1,1,1,0,0,2,0,1,1,2150,0,0,0,2157,
scooby_state_402dc0|57|-1 0,1,0,0,1,1,3,2,0,2,1,2145,0,1,0,2157,
scooby_state_402dc0|33|-1 1,0,1,0,0,1,0,2,1,1,1,2149,0,0,0,2157,
scooby_state_402dc0|8|-1 2,3,0,1,0,1,2,0,3,1,1,2141,1,0,1,2157,
scooby_state_402dc0|21|-1 1,0,0,1,0,1,0,3,0,0,1,2148,1,1,0,2157,
scooby_state_402dc0|11|-1 1,1,0,1,0,0,1,0,1,0,1,2151,0,0,0,2157,
scooby_state_402dc0|58|-1 0,2,0,0,2,1,1,0,0,1,0,2149,1,0,0,2157,
scooby_state_402dc0|1|-1 0,1,0,1,0,0,1,0,1,0,0,2152,1,0,0,2157,
scooby_state_402dc0|4|-1 0,3,0,2,0,1,1,0,1,0,1,2146,0,1,1,2157,
scooby_state_402dc0|15|-1 1,0,0,1,0,1,0,0,1,0,1,2152,0,0,0,2157,
scooby_state_402dc0|12|-1 2,0,0,3,0,2,0,1,1,0,1,2146,0,0,1,2157,
scooby_state_402dc0|24|-1 1,0,3,0,2,1,0,1,1,0,1,2146,0,1,0,2157,
scooby_state_402dc0|16|-1 1,0,1,1,0,1,0,0,1,0,1,2149,1,0,1,2157,
scooby_state_402dc0|63|0 1,1,1,1,2,1,0,0,0,0,0,2150,0,0,0,2157,
scooby_state_402dc0|2|-1 1,1,0,1,1,0,1,0,1,0,1,2149,1,0,0,2157,
scooby_state_402dc0|18|-1 1,0,0,1,0,2,0,1,2,0,1,2149,0,0,0,2157,
scooby_state_402dc0|5|-1 1,1,2,1,0,0,2,0,1,1,0,2147,0,0,1,2157,
scooby_state_402dc0|36|-1 1,1,1,1,1,1,1,1,0,1,0,2147,0,1,0,2157,
scooby_state_402dc0|19|-1 1,0,0,1,0,1,1,0,1,0,2,2150,0,0,0,2157,
scooby_state_402dc0|60|-1 0,1,1,1,0,0,2,0,1,0,2,2149,0,0,0,2157,
scooby_state_402dc0|62|-1 1,3,0,1,0,0,1,0,1,1,0,2148,0,0,1,2157,
scooby_state_402dc0|7|-1 0,1,0,2,0,0,1,0,1,0,1,2151,0,0,0,2157,
scooby_state_402dc0|10|-1 0,1,1,1,0,0,1,0,1,0,0,2152,0,0,0,2157,
scooby_state_402dc0|0|-1 1,1,0,2,0,1,1,0,3,0,0,2148,0,0,0,2157,
scooby_state_402dc0|61|-1 0,1,0,1,0,0,1,0,2,1,1,2149,0,1,0,2157,
scooby_state_402dc0|34|-1 0,0,1,1,0,1,2,1,0,1,1,2147,0,0,2,2157,
scooby_state_402dc0|56|-1 0,2,0,0,1,0,1,0,0,1,0,2152,0,0,0,2157,
scooby_state_402dc0|13|-1 1,2,0,2,2,1,2,0,1,0,2,2144,0,0,0,2157,
scooby_state_402dc0|32|-1 0,0,1,0,0,1,0,1,1,0,1,2152,0,0,0,2157,
scooby_state_402dc0|55|-1 1,1,1,0,1,0,1,0,0,1,0,2150,0,0,1,2157,
scooby_state_402dc0|23|-1 1,0,0,1,0,1,0,2,0,1,1,2150,0,0,0,2157,
scooby_state_402dc0|53|-1 0,1,0,1,2,0,2,0,0,3,0,2148,0,0,0,2157,
scooby_state_402dc0|9|-1 0,1,1,1,1,0,1,0,1,0,1,2149,0,0,1,2157,
scooby_state_402dc0|17|-1 1,0,0,1,0,1,0,0,1,0,1,2151,0,0,1,2157,
scooby_state_402dc0|39|-1 1,0,1,1,2,0,0,1,0,1,0,2147,1,1,1,2157,
scooby_state_402dc0|6|-1 0,1,0,1,1,0,1,0,1,0,0,2152,0,0,0,2157,
scooby_state_402dc0|35|-1 0,0,1,0,0,2,0,1,0,2,1,2148,0,2,0,2157,
scooby_state_402dc0|54|-1 0,1,0,0,1,0,1,0,0,2,0,2152,0,0,0,2157,
scooby_state_402dc0|14|-1 1,0,1,2,0,1,1,0,1,0,3,2147,0,0,0,2157,
scooby_state_402dc0|52|-1 1,1,0,0,1,0,1,0,1,1,0,2151,0,0,0,2157,
scooby_state_402dc0|22|-1 1,0,0,2,0,1,0,1,0,0,2,2150,0,0,0,2157,
scooby_state_402dc0|59|-1 0,1,0,0,1,0,1,0,1,0,0,2153,0,0,0,2157,
scooby_state_402dc0|40|-1 0,0,1,0,1,1,1,1,0,1,0,2150,0,0,0,2156,
scooby_state_402dc0|41|-1 0,0,2,0,2,1,1,3,1,1,0,2143,0,0,0,2154,
scooby_state_403083|33|1 1656,3,2,1,1,3,3,2,0,1,1,1,0,1,478,2153,
scooby_state_402dc0|42|-1 0,0,1,0,1,0,0,1,1,1,0,2147,0,0,0,2152,
scooby_state_402dc0|43|-1 0,0,2,0,1,0,0,1,2,2,0,2142,0,0,0,2150,
scooby_state_403083|57|1 1679,3,2,3,2,1,2,2,1,0,1,1,1,1,449,2148,
scooby_state_402dc0|44|-1 0,0,1,1,2,2,1,2,0,1,1,2137,0,0,0,2148,
scooby_state_402dc0|46|-1 0,0,1,0,3,0,0,1,0,2,0,2139,0,0,0,2146,
scooby_state_402dc0|48|-1 0,0,1,1,1,1,1,2,1,1,0,2136,1,0,0,2146,
scooby_state_402dc0|45|-1 0,0,1,1,1,1,0,1,0,1,0,2138,0,2,0,2146,
scooby_state_402dc0|50|-1 0,1,0,0,1,0,1,0,0,1,0,2142,0,0,0,2146,
scooby_state_402dc0|51|-1 0,1,1,0,3,1,1,0,0,2,0,2136,0,1,0,2146,
scooby_state_402dc0|49|-1 1,1,0,0,2,2,2,0,0,1,1,2136,0,0,0,2146,
scooby_state_402dc0|47|-1 0,0,1,0,2,0,1,1,0,1,0,2140,0,0,0,2146,
scooby_state_403083|43|1 1678,1,5,4,2,2,0,2,1,0,2,0,2,1,438,2138,
scooby_state_403083|29|1 1715,0,2,0,0,0,0,0,1,1,0,0,1,0,416,2136,
scooby_state_403083|9|1 1695,2,9,4,3,2,5,6,2,0,2,2,3,2,399,2136,
scooby_state_402dc3|15|-4 2129,0,1,0,0,0,0,0,1,0,0,0,0,0,0,2131,
scooby_state_403083|49|1 1643,5,9,5,1,4,1,4,1,0,1,0,6,1,435,2116,
scooby_state_403083|59|1 1710,1,4,2,1,0,1,1,0,1,2,0,2,0,385,2110,
scooby_state_402dc3|40|-4 2106,0,0,0,0,0,1,0,0,1,1,0,0,0,0,2109,
scooby_state_403083|17|1 1673,1,3,1,2,1,0,0,0,0,1,0,0,0,426,2108,
scooby_state_402dc3|50|-4 2096,1,0,0,0,1,0,1,0,0,0,0,1,0,0,2100,
scooby_state_403083|23|1 1683,0,2,1,0,0,0,2,0,0,1,0,1,0,407,2097,
scooby_state_403083|45|1 1670,2,3,1,1,1,1,1,1,0,0,1,1,0,410,2093,
scooby_state_402dc3|51|-4 2088,0,0,0,0,1,1,0,0,0,0,0,0,1,1,2092,
scooby_state_402dc3|54|-4 2086,0,1,0,0,0,0,0,1,0,1,1,0,0,0,2090,
scooby_state_403083|37|1 1666,0,0,0,1,0,0,1,3,1,0,0,0,0,416,2088,
scooby_state_403083|61|1 1649,1,2,1,2,0,0,0,1,1,0,0,2,0,428,2087,
scooby_state_403083|25|1 1666,0,0,1,1,2,1,0,0,0,1,1,1,0,410,2084,
scooby_state_402dc3|46|-4 2075,2,0,0,1,0,1,1,1,0,0,0,1,0,0,2082,
scooby_state_402dc3|48|-4 2067,0,0,0,0,0,0,1,2,0,0,0,0,0,0,2070,
scooby_state_402dc3|36|-4 2068,0,0,0,0,0,0,0,0,0,0,0,0,0,1,2069,
scooby_state_403083|27|1 1657,1,2,2,2,3,1,1,0,0,2,0,1,0,396,2068,
scooby_state_403083|19|1 1676,0,0,1,1,0,0,0,1,0,0,0,0,1,387,2067,
scooby_state_402dc3|2|-4 2061,1,0,1,0,0,0,0,0,0,0,0,1,0,0,2064,
scooby_state_402dc3|23|-4 2058,0,1,0,0,1,0,0,1,0,1,0,0,0,1,2063,
scooby_state_403083|5|1 1693,0,1,0,0,0,0,0,1,0,1,0,2,0,364,2062,
scooby_state_402dc3|18|-4 2057,0,0,0,0,1,0,0,1,0,0,0,1,0,0,2060,
scooby_state_402dc3|42|-4 2052,0,0,0,1,0,0,0,0,0,0,1,1,0,0,2055,
scooby_state_403083|13|1 1669,2,2,1,4,0,1,1,1,0,2,0,1,0,370,2054,
scooby_state_402dc3|45|-4 2048,1,0,1,0,0,0,0,0,0,0,1,0,0,0,2051,
scooby_state_402dc3|7|-4 2045,0,1,0,0,0,1,0,0,0,0,0,2,1,1,2051,
scooby_state_402dc3|49|-4 2049,0,0,0,0,0,0,0,0,0,0,0,0,0,0,2049,
scooby_state_403083|63|1 1678,0,0,2,0,1,0,1,0,0,1,1,0,0,362,2046,
scooby_state_403083|21|1 1642,1,0,0,2,0,0,0,0,0,1,1,0,0,395,2042,
scooby_state_402dc3|27|-4 2039,1,1,0,0,0,0,0,0,0,0,0,0,0,0,2041,
scooby_state_403083|3|1 1663,0,1,0,0,0,1,1,1,1,1,2,1,1,364,2037,
scooby_state_402dc3|44|-4 2032,0,0,0,0,0,0,1,0,0,1,0,0,1,1,2036,
scooby_state_403083|47|1 1646,1,0,1,1,1,0,0,0,2,0,2,0,1,374,2029,
scooby_state_403083|11|1 1630,2,1,1,1,2,0,1,0,0,0,2,2,0,384,2026,
scooby_state_402dc3|5|-4 2011,0,0,1,2,0,0,1,1,1,0,0,0,2,1,2020,
scooby_state_402dc3|26|-4 2010,1,0,1,1,0,0,0,0,0,0,0,0,0,0,2013,
scooby_state_403083|35|1 1645,0,0,0,0,2,0,2,0,1,0,1,0,0,362,2013,
scooby_state_402dc3|12|-4 2004,0,0,1,0,0,0,1,1,0,0,0,0,0,0,2007,
scooby_state_403083|53|1 1651,1,0,0,1,0,0,0,0,1,0,2,1,1,349,2007,
scooby_state_402dc3|8|-4 2004,0,0,0,0,1,0,0,0,0,1,0,0,0,0,2006,
scooby_state_402dc3|41|-4 2004,0,1,0,0,0,0,0,0,0,0,0,0,0,0,2005,
scooby_state_403083|39|1 1613,0,1,1,1,0,1,0,1,0,0,0,1,0,380,1999,
scooby_state_402dc3|11|-4 1992,0,1,0,1,0,0,0,0,0,0,0,1,0,2,1997,
scooby_state_403083|1|1 1637,1,2,0,1,1,0,0,0,1,1,0,1,0,351,1996,
scooby_state_402dc3|21|-4 1987,0,0,0,1,1,0,2,0,1,0,0,0,0,0,1992,
scooby_state_403083|15|1 1616,0,1,0,0,0,0,0,0,0,0,1,3,1,362,1984,
scooby_state_402dc3|35|-4 1977,0,0,0,0,0,1,0,0,0,0,1,0,1,0,1980,
scooby_state_402dc3|20|-4 1974,1,1,0,0,0,0,0,0,1,0,0,0,0,0,1977,
scooby_state_403083|51|1 1629,2,1,1,1,0,0,2,0,0,0,0,0,0,336,1972,
scooby_state_402dc3|13|-4 1972,0,0,0,0,0,0,0,0,0,0,0,0,0,0,1972,
scooby_state_402dc3|19|-4 1969,0,0,0,0,0,0,0,0,0,0,0,1,1,0,1971,
scooby_state_402dc3|38|-4 1970,0,0,0,0,0,0,0,1,0,0,0,0,0,0,1971,
scooby_state_402dc3|32|-4 1958,0,0,1,0,0,0,0,1,1,0,0,0,0,0,1961,
scooby_state_402dc3|10|-4 1951,0,0,0,1,0,1,0,0,0,0,0,0,0,0,1953,
scooby_state_402dc3|16|-4 1949,0,0,0,0,0,1,0,1,0,0,0,0,0,1,1952,
scooby_state_402dc3|9|-4 1942,1,0,0,0,0,0,0,0,1,1,0,0,0,0,1945,
scooby_state_402dc3|4|-4 1936,0,1,1,1,0,1,1,0,0,0,0,2,0,1,1944,
scooby_state_402dc3|22|-4 1939,0,0,0,1,1,0,1,0,0,0,0,0,0,0,1942,
scooby_state_402dc3|24|-4 1935,0,0,1,0,1,0,0,1,0,0,0,1,0,0,1939,
scooby_state_402dc3|25|-4 1931,0,0,1,0,0,0,1,1,2,0,0,0,0,1,1937,
scooby_state_402dc3|6|-4 1930,1,0,1,0,1,0,0,0,0,1,0,0,1,0,1935,
scooby_state_402dc3|39|-4 1926,0,1,1,0,0,0,1,0,1,1,1,1,1,1,1935,
scooby_state_402dc3|29|-4 1927,0,0,0,0,1,1,0,0,0,1,0,0,0,0,1930,
scooby_state_402dc3|0|-4 1919,0,0,1,0,0,1,0,1,0,1,0,0,0,1,1924,
scooby_state_402dc3|30|-4 1921,0,0,0,0,1,0,0,0,0,0,0,0,0,0,1922,
scooby_state_402dc3|3|-4 1920,0,0,0,0,0,1,0,0,0,0,0,0,0,0,1921,
scooby_state_402dc3|34|-4 1915,0,1,0,0,0,0,1,1,1,0,0,0,0,0,1919,
scooby_state_402dc3|37|-4 1910,0,0,1,0,0,1,0,0,0,1,0,0,1,0,1914,
scooby_state_402dc3|28|-4 1907,1,0,1,0,0,1,0,1,0,0,0,0,0,0,1911,
scooby_state_402dc3|14|-4 1902,0,0,1,0,0,0,0,0,0,0,0,0,0,2,1905,
scooby_state_402dfb|50|-2 0,0,2,2,0,0,2,0,0,2,1,1827,0,0,0,1836,
scooby_state_402dc3|33|-4 1820,1,1,0,0,0,0,0,0,0,0,0,0,0,0,1822,
scooby_state_402dfb|40|-2 0,1,0,1,0,0,0,1,0,0,1,1816,1,0,0,1821,
scooby_state_402dfb|24|-1 0,2,0,0,0,1,0,1,0,1,2,1779,29,0,1,1816,
scooby_state_402dfb|8|-2 0,0,1,0,0,1,1,0,2,1,0,1802,0,0,2,1810,
scooby_state_402dfb|1|-2 1,1,1,0,2,0,0,0,1,0,1,1798,1,2,0,1808,
scooby_state_402dfb|61|-2 0,1,0,1,1,1,1,1,0,0,0,1793,1,1,1,1802,
scooby_state_402dc3|1|-4 1796,0,1,0,1,0,0,0,2,0,0,0,0,0,0,1800,
scooby_state_402dfb|16|-1 0,2,0,0,1,1,0,0,1,0,0,1759,28,0,0,1792,
scooby_state_402dfb|28|-2 0,2,0,1,0,0,0,1,0,1,0,1784,0,0,0,1789,
scooby_state_402dfb|56|-2 0,1,1,0,0,1,1,1,0,1,0,1777,0,1,0,1784,
scooby_state_402dfb|42|-1 0,1,0,2,0,1,1,1,0,0,0,1743,35,0,0,1784,
scooby_state_402dfb|62|0 288,0,0,0,0,0,0,0,1,1,1,1492,0,0,0,1783,
scooby_state_402dc3|17|-4 1782,0,0,0,1,0,0,0,0,0,0,0,0,0,0,1783,
scooby_state_402dfb|22|-2 0,1,0,1,1,1,1,0,1,0,1,1766,1,0,0,1774,
scooby_state_402dfb|53|-1 0,0,0,1,0,1,1,0,0,2,0,1734,29,0,2,1770,
scooby_state_402dfb|24|-2 0,1,1,1,1,0,2,0,0,0,1,1759,1,0,0,1767,
scooby_state_402dfb|60|-2 0,0,1,0,1,0,1,1,1,0,0,1760,0,1,0,1766,
scooby_state_402dfb|0|-1 1,1,0,0,1,0,2,1,1,0,2,1721,32,0,1,1763,
scooby_state_402dcb|0|-3 3,3,2,1,1,1,0,0,1,0,0,7,1739,0,0,1758,
scooby_state_402dfb|51|-2 0,1,0,1,0,1,0,0,0,1,0,1750,0,0,0,1754,
scooby_state_402dfb|6|-2 1,0,1,1,3,0,1,0,1,0,1,1742,2,0,0,1753,
scooby_state_402dfb|44|-1 0,0,1,2,0,0,1,0,0,0,1,1720,27,0,0,1752,
scooby_state_402dfb|53|-2 0,1,0,3,0,0,1,1,0,0,1,1744,0,0,0,1751,
scooby_state_402dfb|11|-1 0,1,0,0,0,1,1,0,1,1,0,1717,29,0,0,1751,
scooby_state_402dfb|44|-2 1,0,0,0,1,0,0,1,1,0,1,1740,0,0,0,1745,
scooby_state_402dfb|37|-2 0,0,1,0,1,0,1,0,1,0,1,1737,0,0,0,1742,
scooby_state_402dfb|32|-1 0,2,0,1,0,1,0,1,0,1,0,1708,26,0,0,1740,
scooby_state_402dfb|34|-2 0,0,3,0,1,0,1,0,2,1,0,1728,0,0,2,1738,
scooby_state_402dfb|42|-2 0,1,2,0,0,0,2,1,1,0,1,1728,0,0,1,1737,
scooby_state_402dfb|19|-2 0,0,0,1,1,0,1,0,1,2,1,1727,0,0,2,1736,
scooby_state_402dfb|37|-1 0,1,0,1,0,1,0,2,1,1,0,1701,28,0,0,1736,
scooby_state_402dfb|8|-1 1,1,0,0,1,1,0,0,1,0,2,1695,32,0,0,1734,
scooby_state_402dfb|27|-1 0,0,1,1,1,1,0,2,0,1,0,1693,30,0,0,1730,
scooby_state_402dfb|35|-2 0,1,1,0,1,1,1,1,0,0,0,1719,1,0,1,1727,
scooby_state_402dc3|59|-3 1719,1,0,1,0,0,2,0,0,0,0,1,0,1,0,1725,
scooby_state_402dfb|52|-1 1,0,0,1,0,0,1,1,0,0,1,1688,30,0,0,1723,
scooby_state_402dc3|58|-3 1715,1,1,0,2,1,0,0,2,0,0,0,0,0,0,1722,
scooby_state_402dfb|41|-2 1,0,0,1,0,0,0,2,1,2,1,1711,0,0,0,1719,
scooby_state_402dfb|26|-1 1,0,1,1,2,0,1,1,0,0,1,1680,29,0,0,1717,
scooby_state_402dfb|23|-2 0,1,0,3,1,0,0,1,0,1,0,1704,0,0,0,1711,
scooby_state_402dfb|5|-1 1,0,1,0,1,0,1,0,0,0,1,1678,27,0,0,1710,
scooby_state_402dc3|57|-3 1706,0,0,0,0,1,0,0,0,1,0,0,0,0,0,1708,
scooby_state_402dc3|54|-3 1707,0,0,0,0,0,0,0,0,0,0,0,0,0,0,1707,
scooby_state_402dfb|3|-2 1,0,1,0,0,0,1,1,1,0,1,1697,2,0,0,1705,
scooby_state_402dfb|21|-1 1,1,1,0,2,0,0,0,1,0,1,1670,26,0,0,1703,
scooby_state_402dfb|48|-2 0,1,0,2,1,1,0,2,0,0,0,1692,1,0,0,1700,
scooby_state_402dfb|47|-2 0,1,1,0,2,0,2,0,1,1,0,1691,0,0,1,1700,
scooby_state_402dfb|38|-2 0,1,0,1,0,1,0,1,0,1,0,1693,0,0,1,1699,
scooby_state_402dfb|43|-1 2,1,0,1,1,0,1,2,0,1,1,1657,29,0,1,1697,
scooby_state_402dfb|48|-1 1,2,1,2,0,0,0,1,0,1,1,1663,25,0,0,1697,
scooby_state_402dfb|49|-2 2,0,0,1,1,0,0,1,0,0,1,1688,0,0,1,1695,
scooby_state_402dfb|21|-2 0,0,2,0,1,0,1,0,1,0,1,1687,0,2,0,1695,
scooby_state_402dfb|17|-2 0,2,0,0,0,1,0,2,1,1,0,1687,1,0,0,1695,
scooby_state_402dfb|26|-2 0,1,1,0,1,0,0,0,2,0,0,1687,0,0,0,1692,
scooby_state_402dc3|53|-3 1685,1,0,0,1,0,0,0,0,0,0,0,1,1,1,1690,
scooby_state_402dfb|27|-2 0,1,1,0,1,0,0,1,0,1,1,1680,0,1,0,1687,
scooby_state_402dfb|36|-1 0,0,1,0,0,1,2,0,1,0,1,1657,23,0,0,1686,
scooby_state_402dfb|13|-2 0,3,1,0,0,1,0,0,1,0,0,1677,0,1,0,1684,
scooby_state_402dfb|43|-2 0,1,0,0,0,1,0,1,0,1,0,1679,0,0,0,1683,
scooby_state_402dfb|59|-2 0,0,2,0,0,1,1,0,0,1,0,1675,1,0,1,1682,
scooby_state_402dfb|52|-2 1,0,2,0,1,0,0,1,1,0,1,1674,0,0,0,1681,
scooby_state_402dfb|54|-2 1,0,0,1,1,0,1,0,0,1,1,1675,0,0,0,1681,
scooby_state_402dfb|10|-2 0,1,0,2,0,1,0,2,0,1,0,1674,0,0,0,1681,
scooby_state_402dfb|46|-1 1,0,1,0,1,0,1,0,2,0,1,1644,30,0,0,1681,
scooby_state_402dfb|5|-2 0,2,0,0,1,1,0,1,1,0,0,1672,1,0,0,1679,
scooby_state_402dfb|45|-1 1,1,0,2,0,1,0,0,0,1,0,1642,30,0,0,1678,
scooby_state_402dfb|30|-2 0,2,0,0,0,1,1,1,0,1,0,1670,1,0,0,1677,
scooby_state_402dfb|45|-2 0,0,1,1,1,0,2,1,0,0,1,1668,0,1,0,1676,
scooby_state_402dfb|10|-1 2,0,1,0,0,0,1,0,1,0,1,1650,20,0,0,1676,
scooby_state_402dfb|18|-2 0,2,0,1,0,2,0,1,1,0,0,1666,0,1,0,1674,
scooby_state_402dfb|15|-2 0,1,0,2,1,1,0,1,0,2,0,1664,0,0,0,1672,
scooby_state_402dfb|4|-1 1,1,0,1,0,1,1,2,0,0,0,1632,31,0,1,1671,
scooby_state_402dfb|11|-2 1,0,1,0,1,0,1,0,1,0,2,1662,1,0,0,1670,
scooby_state_402dfb|28|-1 0,0,2,0,2,0,1,0,1,0,0,1627,33,0,0,1666,
scooby_state_402dfb|16|-2 1,0,1,0,0,0,1,0,1,0,3,1657,1,0,1,1666,
scooby_state_402dfb|33|-2 0,0,0,1,0,1,0,1,1,1,0,1660,0,0,0,1665,
scooby_state_402dfb|20|-1 1,2,1,0,1,0,0,0,2,0,0,1628,25,0,0,1660,
scooby_state_402dfb|40|-1 0,1,0,3,0,1,0,1,0,1,0,1623,26,1,0,1657,
scooby_state_402dfb|46|-2 0,0,1,1,0,1,0,1,0,1,0,1650,0,0,0,1655,
scooby_state_402dfb|29|-2 0,1,1,1,0,1,1,0,1,0,1,1647,0,0,0,1654,
scooby_state_402dfb|12|-1 0,1,0,0,0,1,0,1,1,1,0,1624,24,0,0,1653,
scooby_state_402dfb|39|-1 0,1,0,1,1,1,1,1,0,0,1,1608,33,0,1,1649,
scooby_state_402dc3|56|-3 1638,0,0,0,1,0,0,1,0,2,0,2,2,0,0,1646,
scooby_state_402dfb|58|-2 0,0,0,1,0,0,1,1,0,2,0,1640,0,0,0,1645,
scooby_state_402dfb|41|-1 1,1,1,0,2,0,1,0,2,0,0,1608,24,1,1,1642,
scooby_state_402dfb|7|-2 0,0,0,1,0,2,1,1,0,1,1,1634,0,0,1,1642,
scooby_state_402dfb|12|-2 0,1,1,1,0,1,0,1,0,1,0,1636,0,0,0,1642,
scooby_state_402dfb|23|-1 0,0,2,0,0,1,1,0,1,0,1,1612,22,0,1,1641,
scooby_state_402dfb|25|-1 0,1,0,0,1,0,0,2,1,0,0,1603,31,0,1,1640,
scooby_state_402dfb|56|-1 1,0,1,0,1,0,1,0,0,0,1,1613,20,0,0,1638,
scooby_state_402dfb|17|-1 0,1,0,1,0,1,0,1,0,0,0,1601,32,0,0,1637,
scooby_state_402dfb|1|-1 2,2,0,1,0,0,1,1,0,2,0,1595,31,0,0,1635,
scooby_state_402dfb|0|-2 1,1,2,1,0,1,0,1,1,0,0,1627,0,0,0,1635,
scooby_state_402dfb|54|-1 1,0,1,0,1,0,1,0,1,0,0,1608,22,0,0,1635,
scooby_state_402dfb|2|-2 0,1,0,1,0,0,0,1,0,1,0,1628,0,0,0,1632,
scooby_state_402dfb|51|-1 1,0,0,0,1,1,1,0,2,0,1,1599,25,0,0,1631,
scooby_state_402dfb|2|-1 0,0,1,1,0,1,2,0,1,0,0,1605,20,0,0,1631,
scooby_state_402dfb|39|-2 1,0,1,0,1,0,1,0,1,0,1,1625,0,0,0,1631,
scooby_state_402dfb|30|-1 1,0,0,1,1,0,0,1,0,0,0,1595,32,0,0,1631,
scooby_state_402dfb|34|-1 0,2,0,2,2,0,0,2,0,0,1,1587,30,1,0,1627,
scooby_state_402dfb|14|-2 3,1,1,0,1,0,0,0,1,1,1,1617,0,0,0,1626,
scooby_state_402dc3|55|-3 1619,0,0,0,0,0,0,1,0,0,1,0,0,0,0,1621,
scooby_state_402dfb|55|-1 0,2,0,1,0,2,0,1,0,1,0,1585,28,0,0,1620,
scooby_state_402dfb|57|-1 0,0,1,1,1,0,2,0,0,1,0,1588,23,0,0,1617,
scooby_state_402dfb|49|-1 0,0,1,0,0,0,1,0,1,0,2,1587,25,0,0,1617,
scooby_state_40307e|0|0 1613,1,0,0,0,0,0,0,0,0,0,0,1,1,1,1617,
scooby_state_402dfb|19|-1 0,1,0,2,0,2,0,0,0,1,0,1579,32,0,0,1617,
scooby_state_402dfb|38|-1 1,0,1,0,1,1,1,2,1,1,1,1582,17,0,0,1609,
scooby_state_402dfb|33|-1 1,1,1,0,1,0,0,0,1,1,1,1568,28,0,0,1603,
scooby_state_402dfb|6|-1 1,0,1,1,1,1,0,0,0,2,0,1575,20,1,0,1603,
scooby_state_402dfb|50|-1 0,1,0,0,0,1,0,1,0,1,0,1574,25,0,0,1603,
scooby_state_402dc3|60|0 1597,1,0,0,0,0,0,1,0,1,0,1,0,1,0,1602,
scooby_state_402dfb|55|-2 0,0,1,0,0,0,2,0,2,1,1,1593,0,0,0,1600,
scooby_state_402dfb|13|-1 2,0,0,0,1,0,1,1,2,1,1,1562,27,0,0,1598,
scooby_state_402dfb|31|-2 1,1,1,0,1,1,0,1,1,0,0,1589,0,0,0,1596,
scooby_state_402dfb|3|-1 0,0,1,1,2,0,1,0,2,0,0,1564,22,0,0,1593,
scooby_state_402dfb|60|-1 0,1,1,1,0,0,0,1,0,1,1,1567,17,0,0,1590,
scooby_state_402dfb|9|-1 0,1,0,1,0,0,0,1,0,1,0,1564,21,0,0,1589,
scooby_state_402dfb|58|-1 0,1,1,0,0,3,0,0,0,1,0,1558,24,0,1,1589,
scooby_state_402dfb|59|-1 1,1,1,0,1,0,0,0,1,0,1,1562,18,0,0,1586,
scooby_state_402dfb|29|-1 0,2,1,0,3,1,0,1,0,1,2,1547,23,0,0,1581,
scooby_state_402dc3|50|-3 1578,0,0,1,0,1,0,0,0,0,0,0,0,0,0,1580,
scooby_state_402dfb|61|-1 1,0,1,0,1,1,1,0,1,1,1,1544,26,2,0,1580,
scooby_state_402dfb|20|-2 0,1,0,1,1,1,0,1,0,2,0,1571,0,0,0,1578,
scooby_state_402dfb|22|-1 0,1,1,1,1,0,0,1,0,1,0,1545,26,1,0,1578,
scooby_state_402dfb|25|-2 0,2,1,1,0,1,0,0,0,1,0,1571,0,0,0,1577,
scooby_state_402dfb|18|-1 0,0,1,0,1,0,1,0,0,0,1,1543,29,0,0,1576,
scooby_state_402dfb|36|-2 1,0,1,2,1,0,0,1,0,0,0,1568,0,0,0,1574,
scooby_state_402dfb|47|-1 0,1,0,1,0,0,0,1,0,1,1,1542,24,1,0,1572,
scooby_state_402dfb|14|-1 0,0,1,1,0,1,0,1,0,1,0,1534,26,0,0,1565,
scooby_state_402dfb|35|-1 1,0,0,1,0,0,0,1,0,1,1,1534,20,0,1,1560,
scooby_state_402dfb|7|-1 0,2,1,0,0,1,1,1,1,0,0,1526,23,0,0,1556,
scooby_state_402dfb|31|-1 0,0,1,0,1,0,1,0,0,0,1,1527,22,0,0,1553,
scooby_state_402dfb|32|-2 0,0,0,0,1,0,1,1,0,0,1,1545,0,0,0,1549,
scooby_state_402dfb|15|-1 1,0,1,0,0,1,1,0,1,0,0,1505,29,0,0,1539,
scooby_state_402dc3|49|-3 1528,0,0,0,1,0,1,0,1,0,0,0,0,0,0,1531,
scooby_state_402dfb|9|-2 1,1,0,0,1,1,0,1,1,0,1,1522,0,1,0,1530,
scooby_state_402dfb|4|-2 0,0,1,0,0,0,1,0,1,1,0,1519,0,0,0,1523,
scooby_state_402dfb|62|-1 0,0,1,0,1,0,1,0,2,1,1,1483,25,0,0,1515,
scooby_state_402dc3|46|-3 1505,0,0,0,0,0,0,0,1,1,0,0,0,0,0,1507,
scooby_state_402dc3|51|-3 1501,0,0,0,0,0,0,0,1,0,0,1,0,0,0,1503,
scooby_state_402dfb|57|-2 1,0,0,0,1,1,1,0,1,0,1,1497,0,0,0,1503,
scooby_state_403083|0|0 1248,0,0,0,0,1,0,0,0,0,0,0,81,0,136,1466,
scooby_state_402dc3|48|-3 1452,1,0,0,0,0,0,0,0,1,0,0,1,0,0,1455,
scooby_state_402dc3|44|-3 1453,0,0,0,0,0,0,0,0,0,0,0,0,0,1,1454,
scooby_state_402dcb|2|1 1,0,0,0,0,0,0,2,1,2,2,1,1441,0,0,1450,
scooby_state_402dcb|3|1 0,0,0,0,0,0,3,4,0,0,0,0,1434,1,0,1442,
scooby_state_402dc3|45|-3 1434,0,0,0,0,0,0,0,0,0,0,1,1,0,1,1437,
scooby_state_402dc3|26|-3 1408,1,1,0,0,0,1,0,0,0,0,0,0,0,0,1411,
scooby_state_402dc3|42|-3 1399,0,0,0,0,0,0,0,0,0,1,0,0,1,0,1401,
scooby_state_402dcb|1|1 0,1,3,4,0,0,0,0,1,0,0,0,1364,0,0,1373,
scooby_state_402dc3|41|-3 1368,0,0,0,0,0,0,1,0,0,0,0,1,0,0,1370,
scooby_state_402dc3|14|-3 1361,0,2,0,0,0,0,0,0,0,0,1,0,0,0,1364,
scooby_state_402dc3|52|-3 1362,0,1,0,0,0,0,1,0,0,0,0,0,0,0,1364,
scooby_state_402dc3|6|-3 1356,0,1,0,0,0,0,0,0,0,0,1,0,0,2,1360,
scooby_state_402dc3|13|-3 1356,0,1,0,0,0,0,0,0,0,0,0,0,0,0,1357,
scooby_state_402dc3|30|-3 1336,0,0,0,0,0,0,0,0,0,0,0,0,0,0,1336,
scooby_state_402dc3|43|-3 1333,0,0,0,0,0,0,1,0,0,0,0,1,0,0,1335,
scooby_state_402dc3|21|-3 1331,0,0,0,2,0,0,1,0,0,0,0,0,0,0,1334,
scooby_state_402dc3|22|-3 1324,0,0,1,0,1,0,0,0,0,0,0,0,0,2,1328,
scooby_state_402dc3|24|-3 1322,0,1,0,0,1,0,1,0,1,0,1,0,0,0,1327,
scooby_state_402dc3|25|-3 1315,0,0,2,0,0,0,0,0,0,0,0,0,0,1,1318,
scooby_state_402dc3|37|-3 1316,0,0,0,0,0,0,1,0,0,0,1,0,0,0,1318,
scooby_state_402dc3|29|-3 1314,0,0,0,0,0,1,0,0,0,0,0,0,0,0,1315,
scooby_state_402dc3|19|-3 1311,0,0,0,1,0,0,0,0,0,2,0,0,0,0,1314,
scooby_state_402dc3|34|-3 1308,0,0,0,0,0,0,0,0,0,1,0,0,0,0,1309,
scooby_state_402dc3|3|-3 1302,0,1,0,0,1,0,0,0,0,0,0,0,0,0,1304,
scooby_state_402dc3|39|-3 1300,1,0,0,0,0,0,1,0,0,0,1,0,0,0,1303,
scooby_state_402dc3|27|-3 1299,0,0,0,0,0,0,0,0,0,0,0,0,0,0,1299,
scooby_state_402dc3|33|-3 1296,0,1,0,0,0,1,0,0,0,0,0,0,0,0,1298,
scooby_state_402dc3|11|-3 1293,1,0,0,0,0,1,1,1,0,0,0,0,0,0,1297,
scooby_state_402dc3|35|-3 1294,0,0,0,0,0,0,0,0,0,0,0,1,0,0,1295,
scooby_state_402dc3|16|-3 1291,0,0,0,1,0,0,1,0,1,0,0,0,0,0,1294,
scooby_state_402dc3|23|-3 1290,0,0,0,0,0,0,0,0,0,0,0,0,0,0,1290,
scooby_state_402dc3|5|-3 1285,0,0,0,0,0,0,1,1,0,0,1,0,1,0,1289,
scooby_state_402dc3|7|-3 1284,0,0,0,0,0,0,0,0,0,0,1,1,1,0,1287,
scooby_state_402dc3|17|-3 1284,0,0,1,1,0,0,0,0,0,0,0,0,0,0,1286,
scooby_state_402dc3|9|-3 1285,0,0,0,0,0,0,0,1,0,0,0,0,0,0,1286,
scooby_state_402dc3|10|-3 1279,0,0,0,0,0,0,1,0,1,0,0,0,0,0,1281,
scooby_state_402dc3|1|-3 1275,0,0,1,1,0,0,0,0,0,0,0,0,0,1,1278,
scooby_state_402dc3|28|-3 1278,0,0,0,0,0,0,0,0,0,0,0,0,0,0,1278,
scooby_state_402dc3|47|-3 1267,0,0,1,2,1,0,0,0,1,1,0,0,0,0,1273,
scooby_state_402dc3|40|-3 1268,1,1,0,0,0,0,0,0,1,0,0,0,0,0,1271,
scooby_state_402dc3|2|-3 1264,0,0,0,0,0,0,0,0,0,0,0,0,0,1,1265,
scooby_state_402dc3|8|-3 1260,0,0,0,0,0,0,0,0,0,0,0,0,0,1,1261,
scooby_state_402dc3|32|-3 1247,0,0,0,0,0,1,0,0,0,0,0,0,0,0,1248,
scooby_state_402dc3|18|-3 1241,1,0,0,0,0,1,0,0,0,0,0,1,0,1,1245,
scooby_state_402dc3|36|-3 1232,0,0,0,0,0,0,1,2,0,0,0,0,0,0,1235,
scooby_state_402dc3|38|-3 1218,0,0,0,0,0,0,0,0,0,0,0,0,0,0,1218,
scooby_state_402dc3|12|-3 1212,0,0,0,0,0,0,0,0,0,0,1,0,0,0,1213,
scooby_state_402dcb|63|1 0,0,0,0,0,0,0,1,3,3,0,0,1189,0,0,1196,
scooby_state_402dc3|4|-3 1192,0,1,1,0,0,0,0,0,0,0,0,0,0,1,1195,
scooby_state_402dc3|20|-3 1186,0,0,0,0,0,1,0,0,0,0,0,0,0,0,1187,
scooby_state_402dc3|0|-3 1175,0,0,1,0,1,0,0,1,0,0,0,0,0,1,1179,
scooby_state_402dcb|61|1 0,1,0,1,3,2,0,0,0,1,0,0,1170,0,0,1178,
scooby_state_402dc3|15|-3 1173,0,0,0,0,0,0,0,0,0,0,0,0,0,1,1174,
scooby_state_402dcb|62|1 1,3,2,0,0,0,0,0,0,0,0,2,1120,0,0,1128,
scooby_state_402dcb|60|1 0,0,0,1,0,0,1,3,3,0,0,0,1116,0,0,1124,
scooby_state_402dc7|63|0 25,1,0,0,0,0,0,0,1,1,1,0,1062,0,0,1091,
scooby_state_402dc3|31|-3 1056,0,0,0,0,0,1,0,1,0,0,1,0,0,1,1060,
scooby_state_402dcb|57|1 0,0,0,0,0,1,3,2,0,0,0,0,1031,0,0,1037,
scooby_state_402dcb|35|1 1,2,3,0,0,0,0,0,0,1,0,3,993,0,0,1003,
scooby_state_402dcb|59|1 2,2,0,0,0,1,0,0,0,1,3,2,987,0,1,999,
scooby_state_402dcb|58|1 0,0,1,3,2,0,1,0,0,0,0,0,982,0,0,989,
scooby_state_402dcb|51|1 1,0,1,1,5,2,0,0,1,0,0,0,953,0,0,964,
scooby_state_402dcb|19|1 1,0,0,0,0,0,0,0,2,2,1,0,957,0,0,963,
scooby_state_402dcb|53|1 0,0,0,0,0,0,0,2,3,2,0,0,952,0,0,959,
scooby_state_402dcb|16|1 0,0,0,0,0,1,0,2,3,1,0,0,950,0,0,957,
scooby_state_402dcb|4|1 0,0,0,2,3,0,0,0,0,0,1,0,948,0,0,954,
scooby_state_402dcb|47|1 0,0,0,0,0,3,2,2,0,0,0,0,942,0,0,949,
scooby_state_402dcb|6|1 0,0,0,0,0,0,0,3,3,0,0,0,941,0,0,947,
scooby_state_402dcb|23|1 0,0,0,2,0,1,1,3,2,0,0,0,936,0,0,945,
scooby_state_402dcb|55|1 0,2,3,2,0,0,0,0,0,1,0,1,931,0,1,941,
scooby_state_402dcb|9|1 0,0,0,0,0,0,1,0,3,2,1,0,933,0,0,940,
scooby_state_402dcb|24|1 0,0,0,1,3,2,1,1,0,0,0,0,928,0,0,936,
scooby_state_402dcb|39|1 2,1,0,0,0,0,0,0,0,1,3,1,926,0,1,935,
scooby_state_402dcb|56|1 2,0,0,0,0,0,0,0,1,3,2,1,924,0,0,933,
scooby_state_402dcb|20|1 0,1,0,1,0,1,3,3,0,0,0,0,921,0,0,930,
scooby_state_402dcb|43|1 1,0,0,0,0,0,0,2,3,0,0,0,921,0,1,928,
scooby_state_402dcb|50|1 1,0,0,0,1,0,2,3,3,1,0,0,914,0,0,925,
scooby_state_402dcb|34|1 0,0,0,0,3,4,0,1,0,0,0,0,914,1,0,923,
scooby_state_402dcb|31|1 0,0,1,2,3,0,0,0,0,0,0,0,914,0,0,920,
scooby_state_402dcb|13|1 0,1,0,0,0,0,2,3,1,0,1,0,909,1,0,918,
scooby_state_402dcb|44|1 0,0,0,0,3,3,1,0,0,0,0,0,911,0,0,918,
scooby_state_402dcb|27|1 0,0,0,0,1,2,4,0,0,0,1,0,907,0,0,915,
scooby_state_402dcb|40|1 0,0,0,0,0,0,2,4,1,1,0,0,904,2,0,914,
scooby_state_402dcb|46|1 0,0,0,0,0,0,0,0,2,3,1,0,907,0,0,913,
scooby_state_402dcb|26|1 0,0,0,0,0,0,0,2,3,2,0,0,906,0,0,913,
scooby_state_402dcb|49|1 2,1,2,0,0,0,0,0,0,2,1,1,901,1,1,912,
scooby_state_402dcb|36|1 0,0,0,0,2,0,0,0,3,2,1,0,902,0,0,910,
scooby_state_402dcb|10|1 0,1,0,0,0,2,3,2,0,1,0,0,901,0,0,910,
scooby_state_402dcb|33|1 0,0,0,0,0,0,0,3,3,0,0,0,903,0,0,909,
scooby_state_402dcb|15|1 1,3,1,0,1,0,0,0,0,1,1,2,899,0,0,909,
scooby_state_402dcb|37|1 0,0,0,1,0,3,2,1,0,0,0,0,902,0,0,909,
scooby_state_402dcb|28|1 0,1,3,3,0,0,0,0,0,0,0,1,898,0,1,907,
scooby_state_402dcb|42|1 2,2,1,0,0,0,1,0,0,0,2,1,896,0,0,905,
scooby_state_402dcb|14|1 0,0,1,2,4,1,0,0,0,0,0,0,896,0,0,904,
scooby_state_402dcb|32|1 2,3,0,1,0,0,0,0,0,0,3,3,889,0,0,901,
scooby_state_402dcb|22|1 1,2,0,0,0,1,0,0,0,1,3,1,892,0,0,901,
scooby_state_402dcb|52|1 2,2,3,0,0,0,0,0,1,0,2,1,889,0,0,900,
scooby_state_402dcb|29|1 1,0,0,0,1,0,0,0,1,3,3,0,889,0,0,898,
scooby_state_402dcb|5|1 1,3,0,0,0,0,0,0,0,0,3,2,889,0,0,898,
scooby_state_402dcb|21|1 0,0,1,3,2,0,0,0,0,0,0,0,891,0,0,897,
scooby_state_402dcb|17|1 0,0,0,2,2,2,2,0,0,0,1,0,888,0,0,897,
scooby_state_402dcb|54|1 0,0,0,0,1,3,2,0,0,0,0,1,889,0,0,896,
scooby_state_402dcb|8|1 0,3,2,1,0,0,0,0,0,0,0,1,887,0,0,894,
scooby_state_402dcb|12|1 1,2,0,0,0,0,0,0,0,2,2,0,887,0,0,894,
scooby_state_402dcb|45|1 0,2,4,1,0,1,0,0,1,1,0,2,882,0,0,894,
scooby_state_402dcb|11|1 1,0,2,4,1,0,0,0,0,0,0,0,884,1,0,893,
scooby_state_402dcb|30|1 1,0,0,1,0,1,2,3,0,0,0,0,883,0,0,891,
scooby_state_402dcb|18|1 0,2,3,2,0,0,0,0,0,0,0,1,881,0,0,889,
scooby_state_402dcb|25|1 1,3,2,0,0,0,0,0,0,0,1,1,879,0,1,888,
scooby_state_402dcb|41|1 0,0,0,2,3,1,1,1,0,1,0,1,877,0,0,887,
scooby_state_402dcb|7|1 0,1,0,0,3,2,1,0,0,0,0,0,874,0,0,881,
scooby_state_402dcb|48|1 0,0,2,2,2,0,0,0,0,0,0,0,869,0,0,875,
scooby_state_402dcb|38|1 0,0,3,2,1,1,0,0,0,1,0,0,861,1,0,870,
scooby_state_40307e|1|0 855,0,0,0,0,1,0,0,0,0,0,0,0,0,0,856,
scooby_state_40307e|2|0 830,0,0,0,0,0,1,0,0,0,0,0,0,0,0,831,
scooby_state_402dcb|1|-3 3,0,0,0,1,0,0,0,0,0,0,14,767,0,0,785,
scooby_state_402dc7|62|-1 22,0,0,0,0,1,0,1,0,0,0,0,753,0,0,777,
scooby_state_402dc7|61|-1 24,0,0,0,0,1,0,0,1,0,0,0,678,0,0,704,
scooby_state_40307e|3|0 701,0,0,0,0,0,1,0,0,0,0,0,0,0,0,702,
scooby_state_402dcb|3|-3 9,0,0,0,0,0,0,0,0,0,0,8,679,1,0,697,
scooby_state_40307e|2|1 678,0,0,0,0,0,0,0,0,0,0,0,0,0,1,679,
scooby_state_402dcb|4|4 38,0,0,0,1,0,1,0,0,0,0,1,637,0,0,678,
scooby_state_402dcb|5|-3 5,0,0,0,0,0,1,0,0,0,0,11,660,0,0,677,
scooby_state_402dcb|0|-7 0,0,0,0,0,0,0,0,0,0,0,0,649,0,0,649,
scooby_state_402dc7|33|-1 25,1,0,0,0,0,1,0,0,0,0,0,616,0,0,643,
scooby_state_40307e|40|1 642,0,0,0,0,0,0,0,0,0,0,0,0,0,1,643,
scooby_state_403012|5|-2 116,0,455,0,0,0,0,0,0,0,0,0,67,0,0,638,
scooby_state_402dc7|60|-1 26,0,0,0,0,0,0,0,0,1,0,0,610,0,0,637,
scooby_state_402dc7|29|-1 25,0,0,0,0,0,0,0,0,0,0,1,610,0,0,636,
scooby_state_402dcb|6|-3 1,0,0,0,0,0,0,0,0,0,0,1,632,0,0,634,
scooby_state_40307e|6|1 632,0,0,0,0,0,0,0,0,1,0,0,0,0,0,633,
scooby_state_402dc7|49|-1 22,0,0,0,0,0,0,1,0,0,0,0,605,0,0,628,
scooby_state_402dc7|17|-1 24,0,0,0,1,0,0,0,0,0,0,0,602,0,0,627,
scooby_state_40307e|30|1 623,0,1,0,0,0,0,0,0,0,0,0,0,0,0,624,
scooby_state_402dc7|13|-1 22,0,0,0,0,1,1,0,0,0,0,0,599,0,1,624,
scooby_state_402dc7|7|-1 23,1,0,0,1,0,0,1,0,0,0,0,597,0,0,623,
scooby_state_40307e|32|1 620,0,0,0,0,0,0,0,0,0,0,0,1,0,0,621,
scooby_state_402dcb|2|-3 4,0,0,1,0,0,0,0,0,0,0,1,613,0,0,619,
scooby_state_402dc7|45|-1 26,1,0,0,0,1,0,0,0,0,0,0,590,0,0,618,
scooby_state_402dcb|7|-3 7,0,0,0,1,0,0,0,2,0,0,11,591,0,0,612,
scooby_state_402dcb|15|-3 2,0,1,0,0,0,0,0,0,0,0,8,595,0,0,606,
scooby_state_40307e|60|1 604,0,0,0,1,0,0,0,0,0,0,1,0,0,0,606,
scooby_state_402dcb|6|4 39,0,1,0,1,0,0,0,0,0,0,0,563,0,1,605,
scooby_state_40307e|8|1 602,1,0,0,0,0,0,0,0,0,0,0,0,0,0,603,
scooby_state_40307e|26|1 601,0,0,0,0,0,0,0,0,0,0,0,0,1,0,602,
scooby_state_402dc7|30|-1 27,0,0,0,0,0,0,0,0,0,0,0,572,0,0,599,
scooby_state_40307e|16|1 599,0,0,0,0,0,0,0,0,0,0,0,0,0,0,599,
scooby_state_40307e|48|1 595,0,0,0,0,0,0,1,0,0,1,0,0,0,0,597,
scooby_state_402dcb|4|-3 4,0,0,0,0,0,0,1,0,0,0,10,576,0,0,591,
scooby_state_402dcb|8|-3 2,0,0,0,1,0,0,0,0,0,0,13,574,1,0,591,
scooby_state_402dc7|47|-1 24,0,0,1,0,0,0,0,0,1,0,0,561,0,0,587,
scooby_state_402dc7|54|-1 26,0,0,1,1,0,0,0,0,0,1,0,557,0,0,586,
scooby_state_402dc7|15|-1 23,0,0,0,1,0,1,0,0,1,0,0,557,0,0,583,
scooby_state_40307e|12|1 578,0,0,0,0,0,0,1,0,0,0,0,0,0,0,579,
scooby_state_402dc7|14|-1 26,0,0,0,0,1,0,0,0,0,0,0,551,0,0,578,
scooby_state_402dc7|58|-1 24,1,0,0,0,0,0,0,0,0,0,0,551,0,0,576,
scooby_state_402dc7|1|-1 25,0,0,0,0,1,0,0,0,0,0,0,550,0,0,576,
scooby_state_402dc7|57|-1 25,0,1,1,0,0,0,0,0,0,0,0,545,0,0,572,
scooby_state_40307e|42|1 571,0,0,0,0,0,0,0,0,0,0,0,0,0,0,571,
scooby_state_402dc7|31|-1 27,0,1,0,0,0,0,0,0,0,0,0,540,1,0,569,
scooby_state_40307e|62|1 565,0,0,0,0,0,0,0,0,0,1,1,0,0,0,567,
scooby_state_40307e|58|1 565,0,0,0,0,0,0,0,0,0,0,0,0,0,0,565,
scooby_state_402dc7|55|-1 25,0,0,0,0,0,0,0,0,0,0,0,540,0,0,565,
scooby_state_40307e|44|1 562,0,1,0,0,1,0,0,0,0,0,0,0,0,0,564,
scooby_state_40307e|1|1 563,0,0,0,0,0,0,0,0,0,0,0,0,0,1,564,
scooby_state_402dc7|39|-1 23,0,0,0,0,1,0,0,0,0,0,0,538,0,0,562,
scooby_state_40307e|10|1 560,0,0,0,0,0,0,0,0,0,0,0,0,0,0,560,
scooby_state_40307e|46|1 555,0,0,0,0,0,0,1,0,0,1,0,0,1,0,558,
scooby_state_402dcb|59|-3 4,1,0,0,0,0,0,0,0,0,0,2,549,0,0,556,
scooby_state_40307e|18|1 551,1,0,0,0,1,0,0,0,0,0,0,0,0,0,553,
scooby_state_402dc7|28|-1 22,0,0,0,1,0,0,0,0,0,0,1,527,1,0,552,
scooby_state_402dc7|46|-1 23,1,0,0,0,0,0,0,0,0,0,0,520,1,0,545,
scooby_state_402dc7|25|-1 23,0,0,0,0,0,1,0,0,0,0,0,520,0,0,544,
scooby_state_40307e|4|0 541,1,0,0,0,0,0,0,0,0,0,0,0,0,0,542,
scooby_state_40307e|14|1 540,1,0,0,0,0,0,0,0,0,0,0,0,0,0,541,
scooby_state_40307e|28|1 538,0,0,0,0,0,0,0,0,0,0,0,0,0,0,538,
scooby_state_402dcb|58|-3 3,1,0,0,0,0,0,0,0,0,0,6,526,1,0,537,
scooby_state_402dc7|43|-1 26,0,0,1,0,0,0,0,0,0,0,0,510,0,0,537,
scooby_state_402dcb|26|-3 2,0,0,0,0,0,0,0,0,0,0,0,535,0,0,537,
scooby_state_402dc7|36|-1 23,0,0,0,0,0,0,0,1,0,0,0,511,0,0,535,
scooby_state_40307e|4|1 535,0,0,0,0,0,0,0,0,0,0,0,0,0,0,535,
scooby_state_40307e|34|1 533,0,0,0,0,1,0,0,0,1,0,0,0,0,0,535,
scooby_state_40307e|50|1 534,0,0,0,0,0,0,0,0,0,0,0,0,0,0,534,
scooby_state_40307e|20|1 534,0,0,0,0,0,0,0,0,0,0,0,0,0,0,534,
scooby_state_40307e|24|1 532,2,0,0,0,0,0,0,0,0,0,0,0,0,0,534,
scooby_state_402dc7|12|-1 24,0,0,0,0,0,1,0,0,0,0,0,508,0,0,533,
scooby_state_40307e|38|1 531,1,0,0,0,0,1,0,0,0,0,0,0,0,0,533,
scooby_state_40307e|36|1 531,0,0,0,0,0,0,0,0,1,0,0,0,0,0,532,
scooby_state_402dc7|44|-1 24,0,1,0,0,0,0,0,0,0,0,0,507,0,0,532,
scooby_state_40307e|56|1 530,0,0,0,0,0,1,0,0,0,0,0,0,0,0,531,
scooby_state_40307e|52|1 530,0,0,1,0,0,0,0,0,0,0,0,0,0,0,531,
scooby_state_402dc7|38|-1 25,0,0,0,0,0,1,0,0,0,0,0,503,0,0,529,
scooby_state_402dcb|14|-3 4,0,0,0,0,0,0,0,0,0,0,6,516,0,0,526,
scooby_state_402dc7|18|-2 1,0,0,0,0,0,0,0,0,0,0,0,523,0,0,524,
scooby_state_402dc7|23|-1 20,0,0,0,0,0,0,0,1,0,0,0,503,0,0,524,
scooby_state_40307e|54|1 524,0,0,0,0,0,0,0,0,0,0,0,0,0,0,524,
scooby_state_402dc7|41|-1 25,0,0,0,1,0,1,0,0,0,0,0,494,0,0,521,
scooby_state_402dcb|10|-3 2,0,0,0,0,0,1,0,0,0,0,3,513,1,0,520,
scooby_state_40307e|5|0 519,0,0,0,0,0,0,0,0,0,0,0,0,0,0,519,
scooby_state_402dc7|6|-1 24,0,1,0,0,0,0,0,0,0,0,0,492,0,0,517,
scooby_state_402dc7|10|-1 23,0,0,0,0,0,0,1,1,0,1,0,491,0,0,517,
scooby_state_40307e|22|1 517,0,0,0,0,0,0,0,0,0,0,0,0,0,0,517,
scooby_state_402dcb|2|-7 0,0,0,0,0,0,0,0,0,0,0,0,515,0,1,516,
scooby_state_403012|40|-2 43,0,442,0,0,0,0,0,0,0,0,0,28,0,0,513,
scooby_state_402dcb|5|4 22,0,1,0,0,0,0,1,0,0,0,0,489,0,0,513,
scooby_state_402dc7|22|-1 24,0,0,0,0,0,0,0,1,1,0,0,484,0,1,511,
scooby_state_402dc7|9|-1 23,1,0,0,0,0,0,0,0,1,0,0,480,0,0,505,
scooby_state_402dcb|11|-3 0,0,0,1,0,0,0,0,0,0,0,4,498,0,0,503,
scooby_state_402dc7|0|-1 24,0,1,0,0,0,1,0,0,0,0,0,477,0,0,503,
scooby_state_402dc7|2|-2 2,0,0,0,0,0,0,0,0,0,0,0,500,0,0,502,
scooby_state_402dc7|52|-1 24,0,0,0,0,1,0,0,0,0,0,0,476,0,0,501,
scooby_state_402dcb|30|-3 6,0,0,0,1,0,0,0,0,0,0,8,483,0,0,498,
scooby_state_402dcb|12|-3 1,0,0,1,0,0,0,0,0,2,0,1,493,0,0,498,
scooby_state_402dc7|26|-1 22,0,0,0,0,1,0,0,0,0,0,0,470,1,0,494,
scooby_state_402dcb|31|-3 4,0,0,0,1,0,0,0,0,0,0,3,484,0,0,492,
scooby_state_403012|8|-2 38,0,440,0,0,0,0,0,0,0,1,0,12,0,0,491,
scooby_state_402dcb|25|-3 3,0,0,0,0,0,0,0,0,0,0,6,481,0,0,490,
scooby_state_402dc7|56|-1 24,0,0,1,0,0,0,0,0,0,0,0,462,0,0,487,
scooby_state_40307e|9|1 487,0,0,0,0,0,0,0,0,0,0,0,0,0,0,487,
scooby_state_402dc7|20|-1 26,1,0,1,0,0,0,0,0,0,0,0,459,0,0,487,
scooby_state_402dcb|17|-3 1,0,0,0,0,0,0,0,0,0,0,4,482,0,0,487,
scooby_state_403012|62|-1 12,0,443,2,2,1,0,0,0,0,0,13,6,0,6,485,
scooby_state_402dc7|9|-2 4,0,1,0,0,0,0,0,0,0,0,0,477,0,0,482,
scooby_state_40307e|6|0 481,0,0,0,0,0,0,0,0,0,0,0,0,0,0,481,
scooby_state_402dcb|60|-3 2,0,0,0,0,0,0,0,0,0,0,3,476,0,0,481,
scooby_state_402dc7|0|-2 5,0,0,0,0,0,1,0,0,0,0,0,469,0,1,476,
scooby_state_402dc7|34|-2 5,0,0,0,0,0,0,0,0,0,0,0,470,0,0,475,
scooby_state_40307e|41|1 475,0,0,0,0,0,0,0,0,0,0,0,0,0,0,475,
scooby_state_402dc7|62|0 2,0,0,0,1,0,0,0,0,0,0,0,472,0,0,475,
scooby_state_402dcb|51|-3 0,0,0,0,0,0,0,0,0,0,0,7,468,0,0,475,
scooby_state_402dcb|42|-3 4,0,0,0,0,0,0,0,0,0,1,4,465,0,0,474,
scooby_state_403012|56|-2 24,1,418,0,0,0,0,1,0,0,0,0,28,0,0,472,
scooby_state_40307e|21|1 471,0,0,0,0,0,0,0,0,0,0,0,0,0,0,471,
scooby_state_402dcb|54|-3 1,0,0,0,0,0,0,0,0,0,0,3,466,0,0,470,
scooby_state_403012|20|-2 51,0,390,0,0,0,0,0,0,0,0,0,28,0,1,470,
scooby_state_40307e|30|-1 467,0,1,0,0,0,1,0,0,0,0,1,0,0,0,470,
scooby_state_402dc7|27|-1 26,0,0,0,0,1,0,0,0,1,0,0,441,0,0,469,
scooby_state_402dcb|1|-7 0,0,0,0,0,0,0,0,0,0,0,0,469,0,0,469,
scooby_state_402dc7|48|-1 24,0,1,0,0,0,0,0,1,0,0,0,439,0,0,465,
scooby_state_402dcb|43|-3 1,0,0,0,0,0,0,0,0,0,0,0,462,1,0,464,
scooby_state_402dcb|9|-3 4,0,0,0,0,0,0,0,0,0,0,0,460,0,0,464,
scooby_state_402dc7|59|-1 26,1,0,0,0,0,0,0,0,0,1,0,431,0,0,459,
scooby_state_402dc7|40|-1 23,0,0,0,0,1,0,0,0,0,0,0,432,0,0,456,
scooby_state_402dc7|4|-1 26,0,0,0,0,0,0,0,0,0,0,0,428,0,0,454,
scooby_state_402dc7|42|-1 24,0,0,1,0,0,0,0,0,0,0,0,428,0,0,453,
scooby_state_402dc7|25|-2 3,0,0,0,1,0,0,0,0,0,0,0,449,0,0,453,
scooby_state_402dcb|53|-3 0,0,0,0,0,0,0,0,0,0,0,0,451,0,0,451,
scooby_state_402dcb|41|-3 0,0,0,1,0,0,0,0,0,0,0,7,441,0,0,449,
scooby_state_40307e|63|1 449,0,0,0,0,0,0,0,0,0,0,0,0,0,0,449,
scooby_state_403012|58|-2 24,0,416,0,0,0,0,0,0,0,0,0,8,0,0,448,
scooby_state_402dcb|27|-3 2,0,0,0,0,0,0,0,0,0,0,4,441,1,0,448,
scooby_state_402dcb|44|-3 3,0,0,0,0,0,0,0,0,0,0,4,440,0,0,447,
scooby_state_402dcb|63|8 29,0,0,0,0,0,0,0,0,0,0,0,418,0,0,447,
scooby_state_402dc7|21|-1 25,0,0,0,0,0,0,0,0,1,0,0,420,0,0,446,
scooby_state_40307e|7|0 446,0,0,0,0,0,0,0,0,0,0,0,0,0,0,446,
scooby_state_402dcb|0|-4 1,0,0,0,0,0,0,0,0,0,0,1,443,0,0,445,
scooby_state_40307e|33|1 445,0,0,0,0,0,0,0,0,0,0,0,0,0,0,445,
scooby_state_402dc7|53|-1 24,0,0,0,1,0,0,0,0,0,0,0,419,0,0,444,
scooby_state_402dcb|62|4 31,0,0,0,0,0,0,0,0,0,0,0,413,0,0,444,
scooby_state_40307e|49|1 444,0,0,0,0,0,0,0,0,0,0,0,0,0,0,444,
scooby_state_40307e|57|1 444,0,0,0,0,0,0,0,0,0,0,0,0,0,0,444,
scooby_state_402dc7|11|-1 25,0,0,0,0,0,0,1,0,0,0,0,416,0,0,442,
scooby_state_402dc7|32|-2 3,0,0,0,0,0,0,0,0,0,0,0,438,0,0,441,
scooby_state_402dc7|57|-2 2,0,0,0,0,0,0,0,0,0,0,0,438,0,0,440,
scooby_state_402dc7|16|-1 26,0,0,0,0,0,0,0,0,0,0,0,413,0,0,439,
scooby_state_402dcb|7|4 26,0,0,0,0,0,0,0,0,0,0,0,408,0,0,434,
scooby_state_402dc7|49|-2 3,0,0,0,1,0,0,0,0,0,0,0,428,0,0,432,
scooby_state_402dcb|57|-3 4,0,1,0,0,0,0,0,0,0,0,2,425,0,0,432,
scooby_state_402dcb|52|-3 1,0,0,0,1,0,0,0,0,0,1,12,416,0,1,432,
scooby_state_402dcb|3|-7 0,0,0,0,0,0,0,0,0,0,0,0,432,0,0,432,
scooby_state_402dcb|8|8 41,0,0,0,0,0,0,0,0,0,0,0,390,0,0,431,
scooby_state_402dcb|22|-3 1,0,0,1,0,0,0,0,0,1,0,4,424,0,0,431,
scooby_state_402dc7|24|-1 24,1,1,0,0,0,0,1,0,0,0,0,404,0,0,431,
scooby_state_402dcb|33|-3 0,0,0,0,1,0,0,0,0,0,0,0,430,0,0,431,
scooby_state_402dcb|37|-3 0,0,0,0,0,0,0,0,0,0,0,1,429,0,0,430,
scooby_state_402dcb|12|11 0,0,0,0,0,1,0,0,0,0,0,0,427,0,0,428,
scooby_state_402dc7|4|-2 3,0,0,0,0,0,0,0,0,0,0,0,425,0,0,428,
scooby_state_403012|42|-2 24,0,397,0,1,1,0,0,0,0,0,0,4,0,0,427,
scooby_state_402dc7|39|-2 3,0,0,0,0,0,0,0,0,0,0,0,423,0,0,426,
scooby_state_402dc7|21|-2 2,0,0,0,0,0,0,0,0,0,0,0,424,0,0,426,
scooby_state_40307e|25|1 424,0,0,0,0,0,0,0,0,1,0,0,0,0,0,425,
scooby_state_402dcb|19|-3 2,0,0,0,1,0,0,0,0,0,0,1,420,0,0,424,
scooby_state_40307e|23|1 424,0,0,0,0,0,0,0,0,0,0,0,0,0,0,424,
scooby_state_40307e|37|1 423,0,0,0,0,0,0,0,0,0,0,0,0,0,0,423,
scooby_state_403012|44|-2 21,0,374,0,0,0,0,1,0,0,0,0,24,0,1,421,
scooby_state_403012|26|-2 22,0,390,0,0,0,0,0,0,0,0,0,9,0,0,421,
scooby_state_402dcb|24|-3 2,0,0,0,0,0,0,0,0,0,1,6,411,0,0,420,
scooby_state_402dc7|8|-1 27,0,0,0,0,0,0,0,0,1,0,0,392,0,0,420,
scooby_state_402dcb|13|-3 5,0,0,0,0,0,0,1,0,0,0,1,412,0,0,419,
scooby_state_402dcb|35|-3 2,0,0,1,1,0,0,0,0,0,0,6,407,0,0,417,
scooby_state_402dc7|50|-2 6,0,0,0,0,0,0,0,0,0,0,0,411,0,0,417,
scooby_state_402dc7|50|-1 24,0,0,0,0,0,0,1,1,0,0,0,390,0,0,416,
scooby_state_402dcb|21|-3 0,0,0,0,0,0,0,0,0,0,0,3,413,0,0,416,
scooby_state_402dcb|4|-7 0,0,0,0,0,0,0,0,0,0,1,0,414,0,0,415,
scooby_state_403012|36|-2 42,1,356,0,0,0,0,0,0,0,0,0,16,0,0,415,
scooby_state_402dcb|9|8 20,0,0,0,0,0,0,0,0,0,0,0,394,1,0,415,
scooby_state_402dc7|5|-1 24,0,0,1,0,0,0,0,0,0,0,0,388,0,1,414,
scooby_state_402dcb|38|-3 0,0,0,0,0,0,0,0,0,0,0,6,408,0,0,414,
scooby_state_403012|60|-2 20,0,386,0,0,0,0,0,0,0,0,0,7,0,0,413,
scooby_state_403012|48|-2 23,1,381,0,0,0,0,0,0,0,0,0,8,0,0,413,
scooby_state_40307e|61|1 411,0,0,1,0,0,0,0,0,0,0,0,0,0,0,412,
scooby_state_403012|50|-2 23,0,376,0,0,0,0,0,0,0,0,0,13,0,0,412,
scooby_state_402dc7|58|-2 2,0,0,0,0,0,0,1,0,0,0,0,408,0,0,411,
scooby_state_403012|32|-2 33,0,371,0,0,0,0,0,0,0,0,0,6,0,0,410,
scooby_state_402dc7|32|-1 24,0,1,0,0,0,0,0,0,0,0,0,385,0,0,410,
scooby_state_403012|10|-2 35,1,353,0,0,0,0,0,0,0,0,0,21,0,0,410,
scooby_state_402dcb|47|-3 0,0,0,0,0,0,0,0,0,0,0,5,403,0,0,408,
scooby_state_402dcb|13|11 1,0,0,0,0,1,0,0,0,0,0,0,406,0,0,408,
scooby_state_40307e|3|1 407,0,0,0,0,0,0,0,0,0,0,0,0,0,0,407,
scooby_state_402dc7|3|-1 24,0,0,0,1,0,0,0,0,0,0,1,379,0,0,405,
scooby_state_402dc7|18|-1 25,0,0,1,0,0,0,0,0,0,0,0,378,0,1,405,
scooby_state_402dc7|46|-2 2,0,0,0,0,0,0,0,0,0,0,1,400,0,0,403,
scooby_state_402dc7|37|-2 3,0,0,0,0,0,0,0,0,1,0,0,399,0,0,403,
scooby_state_402dc7|31|-2 1,0,0,0,0,0,0,0,0,0,0,0,402,0,0,403,
scooby_state_402dcb|40|-3 2,0,0,0,0,0,0,0,0,1,0,2,397,0,0,402,
scooby_state_402dc7|14|-2 1,0,0,0,0,0,0,0,0,0,0,0,401,0,0,402,
scooby_state_402dc7|36|-2 1,0,0,0,0,0,0,0,0,0,0,1,400,0,0,402,
scooby_state_402dc7|59|-2 0,0,0,0,0,0,0,0,0,0,0,0,402,0,0,402,
scooby_state_40307e|51|1 402,0,0,0,0,0,0,0,0,0,0,0,0,0,0,402,
scooby_state_403012|46|-2 27,0,369,0,0,0,0,0,0,0,0,0,4,0,0,400,
scooby_state_402dc7|61|-2 3,0,0,0,0,0,0,0,0,0,0,0,397,0,0,400,
scooby_state_403039|46|-2 1,0,0,0,0,0,0,1,0,0,0,398,0,0,0,400,
scooby_state_402dc7|37|-1 23,0,0,0,0,0,0,1,0,0,0,0,375,0,0,399,
scooby_state_40307e|53|1 397,2,0,0,0,0,0,0,0,0,0,0,0,0,0,399,
scooby_state_402dc7|2|-1 27,0,0,0,1,0,0,0,0,0,0,0,370,0,0,398,
scooby_state_402dc7|34|-1 25,0,0,1,0,0,0,1,0,1,0,0,370,0,0,398,
scooby_state_402dc7|43|-2 4,0,0,0,0,0,0,0,1,0,0,0,393,0,0,398,
scooby_state_402dcb|49|-3 2,0,0,1,0,0,0,0,0,0,0,2,392,0,0,397,
scooby_state_402dcb|46|-3 2,0,0,0,0,0,0,0,0,0,0,0,392,0,0,394,
scooby_state_402dcb|10|8 24,0,0,1,0,0,0,0,0,0,0,0,368,0,0,393,
scooby_state_402dc7|5|-2 6,0,0,0,0,0,0,0,2,0,0,0,385,0,0,393,
scooby_state_40307e|59|1 392,0,1,0,0,0,0,0,0,0,0,0,0,0,0,393,
scooby_state_403012|30|-2 31,0,355,0,0,0,0,0,0,0,0,0,7,0,0,393,
scooby_state_40307e|17|1 392,0,0,0,0,0,0,0,0,0,0,0,0,0,0,392,
scooby_state_403012|34|-2 21,0,364,0,0,0,0,0,0,0,0,0,5,0,0,390,
scooby_state_402dc7|35|-1 26,0,0,0,0,0,0,0,1,0,0,0,362,0,0,389,
scooby_state_402dcb|11|11 1,0,0,0,0,0,0,0,0,0,1,0,387,0,0,389,
scooby_state_40307e|35|1 387,0,0,0,1,0,0,0,0,0,0,0,0,0,0,388,
scooby_state_403012|12|-2 36,1,342,0,0,0,0,1,0,0,0,0,7,0,1,388,
scooby_state_402dc7|51|-2 2,1,0,0,0,0,0,0,0,0,0,0,385,0,0,388,
scooby_state_402dc7|35|-2 2,0,0,0,0,0,0,0,0,0,0,0,385,0,0,387,
scooby_state_402dcb|55|-3 0,0,0,0,0,0,1,0,0,0,0,8,377,0,0,386,
scooby_state_403012|39|-2 44,0,337,0,0,0,0,0,0,0,0,0,4,0,0,385,
scooby_state_402dc7|55|-2 0,0,0,0,0,0,0,0,0,0,0,0,385,0,0,385,
scooby_state_403012|24|-2 18,0,363,0,0,0,0,1,0,0,0,0,3,0,0,385,
scooby_state_402dc7|60|-2 4,0,0,0,0,0,0,0,0,0,0,0,380,0,0,384,
scooby_state_403012|52|-2 21,0,356,0,0,0,0,0,0,0,0,0,6,0,0,383,
scooby_state_402dcb|34|-3 2,0,1,0,0,0,0,0,0,0,0,4,374,0,1,382,
scooby_state_40307e|35|30 381,0,0,0,0,0,0,0,0,0,0,0,0,0,0,381,
scooby_state_402dc7|16|-2 3,0,0,0,0,0,1,0,0,0,0,0,375,0,0,379,
scooby_state_402dc7|3|-2 1,1,0,0,0,0,0,1,0,0,0,1,375,0,0,379,
scooby_state_403012|25|-2 37,0,327,0,0,0,0,0,0,0,0,0,14,0,0,378,
scooby_state_403012|16|-2 14,0,357,0,0,0,0,0,0,0,0,0,6,0,0,377,
scooby_state_403012|54|-2 19,0,350,0,0,0,0,0,0,0,0,0,8,0,0,377,
scooby_state_403012|18|-2 21,0,351,0,0,0,0,0,0,0,0,0,5,0,0,377,
scooby_state_402dc7|13|-2 5,0,0,0,0,2,0,0,0,0,0,0,369,0,0,376,
scooby_state_402dc7|20|-2 1,0,0,0,0,0,0,0,0,0,0,0,375,0,0,376,
scooby_state_403012|14|-2 15,0,359,0,0,0,0,0,0,0,0,0,2,0,0,376,
scooby_state_402dcb|61|4 20,0,0,0,0,0,0,0,0,0,0,0,355,0,0,375,
scooby_state_40307e|55|1 374,0,0,0,0,0,0,0,0,0,0,0,0,0,0,374,
scooby_state_40307e|5|1 373,0,0,0,0,0,1,0,0,0,0,0,0,0,0,374,
scooby_state_40307e|63|0 372,0,0,0,0,0,0,0,0,0,0,1,0,0,0,373,
scooby_state_402dcb|18|-3 4,0,0,0,0,0,0,0,0,0,0,8,361,0,0,373,
scooby_state_402dc7|11|-2 0,0,0,0,0,0,0,0,0,0,0,0,372,0,0,372,
scooby_state_40307e|39|1 369,0,0,0,0,0,0,0,0,0,0,0,0,0,0,369,
scooby_state_40307e|11|1 368,0,0,0,0,0,0,0,0,0,1,0,0,0,0,369,
scooby_state_40307e|8|0 368,0,0,0,0,0,0,0,0,0,0,0,0,0,0,368,
scooby_state_40307e|13|1 367,0,0,0,0,0,0,0,0,0,0,0,0,0,0,367,
scooby_state_40307e|45|1 366,0,0,0,0,0,0,0,0,1,0,0,0,0,0,367,
scooby_state_402dc7|41|-2 2,0,0,0,0,0,0,0,0,0,0,0,365,0,0,367,
scooby_state_402dcb|28|-3 0,0,0,0,0,0,0,0,0,0,0,6,361,0,0,367,
scooby_state_403012|2|-2 32,0,330,0,0,0,0,0,0,0,0,0,4,0,0,366,
scooby_state_40307e|43|1 365,1,0,0,0,0,0,0,0,0,0,0,0,0,0,366,
scooby_state_40307e|7|1 363,0,0,1,0,0,0,0,0,0,0,0,0,1,0,365,
scooby_state_402dc7|27|-2 1,0,0,0,0,0,0,0,0,0,0,0,364,0,0,365,
scooby_state_403012|41|-2 31,0,314,0,0,0,0,0,0,0,0,0,18,1,0,364,
scooby_state_40307e|19|1 364,0,0,0,0,0,0,0,0,0,0,0,0,0,0,364,
scooby_state_402dcb|36|-3 2,0,0,0,0,0,0,0,0,0,0,0,361,0,0,363,
scooby_state_403012|6|-2 21,0,338,0,0,0,0,0,0,0,0,0,4,0,0,363,
scooby_state_402dcb|23|-3 4,0,0,0,0,0,0,0,0,0,0,2,355,1,0,362,
scooby_state_40307e|40|-1 361,0,0,0,0,0,0,0,0,0,0,0,0,0,0,361,
scooby_state_402dcb|56|-3 3,0,0,0,0,0,0,0,0,0,0,0,358,0,0,361,
scooby_state_403012|19|-2 18,0,332,0,0,0,0,0,0,0,0,0,11,0,0,361,
scooby_state_402dc7|51|-1 25,0,0,0,0,0,1,0,0,1,0,0,334,0,0,361,
scooby_state_402dcb|29|-3 1,0,0,0,0,0,0,0,0,0,0,0,360,0,0,361,
scooby_state_40307e|21|-1 359,0,0,0,0,0,0,0,0,0,0,0,0,0,0,359,
scooby_state_402dcb|50|-3 3,0,0,0,0,0,0,0,1,0,0,0,354,1,0,359,
scooby_state_402dc7|30|-2 0,0,0,0,0,0,0,0,1,0,0,0,357,0,0,358,
scooby_state_402dc7|45|-2 3,0,0,0,0,0,0,0,0,0,0,0,354,0,0,357,
scooby_state_403012|38|-2 34,0,317,0,0,0,0,0,0,0,0,0,6,0,0,357,
scooby_state_40307e|31|1 356,0,0,0,0,1,0,0,0,0,0,0,0,0,0,357,
scooby_state_403012|22|-2 11,0,335,0,0,0,0,0,0,0,0,0,11,0,0,357,
scooby_state_402dcb|60|7 27,0,1,1,0,0,0,0,0,0,0,0,327,0,0,356,
scooby_state_402dcb|39|-3 1,0,0,0,0,0,0,1,0,0,0,4,349,0,1,356,
scooby_state_402dcb|51|-7 0,0,0,0,0,0,0,0,0,0,0,0,353,0,1,354,
scooby_state_402dc7|38|-2 0,0,0,0,0,0,0,0,0,0,0,1,352,0,0,353,
scooby_state_402dc3|52|-11 351,0,1,0,0,0,0,0,0,0,0,0,0,0,0,352,
scooby_state_402dcb|48|-3 3,0,0,0,0,0,0,0,0,0,0,2,346,0,0,351,
scooby_state_403012|17|-2 19,0,327,0,0,0,0,0,0,0,0,1,4,0,0,351,
scooby_state_402dc7|54|-2 1,0,0,0,0,0,0,0,0,0,0,0,349,0,0,350,
scooby_state_40307e|9|0 347,0,1,0,0,0,0,0,0,0,0,0,1,0,0,349,
scooby_state_402dc7|26|-2 2,0,0,0,0,0,0,0,0,0,0,0,347,0,0,349,
scooby_state_402dc7|12|-2 3,0,0,0,0,0,0,0,0,0,0,0,346,0,0,349,
scooby_state_40307e|10|0 347,0,0,0,0,0,0,0,0,0,0,0,0,0,0,347,
scooby_state_40307e|29|1 346,0,0,0,0,0,0,0,0,0,0,0,0,0,0,346,
scooby_state_403012|28|-2 24,0,312,0,0,0,1,0,0,0,0,0,9,0,0,346,
scooby_state_403012|0|-2 28,1,310,0,0,0,0,0,0,0,0,0,7,0,0,346,
scooby_state_402dc7|42|-2 2,0,0,0,0,0,0,0,0,0,0,0,343,0,0,345,
scooby_state_403012|49|-2 17,0,323,0,0,0,0,0,0,0,0,0,5,0,0,345,
scooby_state_402dc7|53|-2 1,0,0,0,0,0,0,0,0,0,1,0,342,0,0,344,
scooby_state_403012|27|-2 30,1,300,0,0,0,0,0,0,0,0,0,11,0,0,342,
scooby_state_403012|29|-2 17,0,309,0,0,0,0,0,0,0,0,0,16,0,0,342,
scooby_state_402dcb|61|11 5,0,0,0,0,0,0,0,0,0,0,0,337,0,0,342,
scooby_state_403012|4|-2 16,0,323,0,0,0,0,0,0,0,0,0,3,0,0,342,
scooby_state_402dc7|48|-2 5,0,0,0,0,0,0,0,0,0,0,0,336,0,0,341,
scooby_state_403012|31|-2 38,0,284,0,0,0,0,0,0,0,0,0,18,0,0,340,
scooby_state_402dcb|7|-7 0,0,0,0,0,0,0,0,0,0,0,0,338,0,0,338,
scooby_state_40307e|13|0 336,0,0,0,0,0,0,0,0,0,0,0,0,0,2,338,
scooby_state_402dcb|16|-3 0,0,0,0,0,0,0,0,0,0,0,0,338,0,0,338,
scooby_state_40307e|27|1 335,0,0,0,0,0,0,1,0,0,0,0,0,0,0,336,
scooby_state_40307e|47|3 336,0,0,0,0,0,0,0,0,0,0,0,0,0,0,336,
scooby_state_402dc7|40|-2 1,0,0,0,1,0,0,0,0,0,0,0,334,0,0,336,
scooby_state_402dc7|7|-2 1,0,0,0,0,0,0,0,0,0,0,0,334,0,0,335,
scooby_state_402dc7|19|-1 24,0,1,0,0,0,0,0,0,0,0,0,310,0,0,335,
scooby_state_403012|7|-2 13,0,315,0,0,0,0,0,0,0,0,0,4,0,0,332,
scooby_state_402dcb|10|-7 0,0,0,0,0,0,0,0,0,0,0,0,332,0,0,332,
scooby_state_40307e|41|0 331,1,0,0,0,0,0,0,0,0,0,0,0,0,0,332,
scooby_state_402dcb|63|4 15,0,0,0,0,0,0,0,0,0,0,1,316,0,0,332,
scooby_state_403012|21|-2 29,0,296,0,0,0,0,0,0,0,0,0,7,0,0,332,
scooby_state_403012|61|-2 11,0,319,0,0,0,0,0,0,0,0,0,1,0,0,331,
scooby_state_402dcb|20|18 252,0,0,0,0,0,0,0,0,0,0,0,78,0,0,330,
scooby_state_402dcb|6|-7 0,0,0,0,0,0,0,0,0,0,0,0,330,0,0,330,
scooby_state_40307e|6|-1 330,0,0,0,0,0,0,0,0,0,0,0,0,0,0,330,
scooby_state_402dc7|29|-2 4,0,0,0,0,1,0,0,0,0,0,0,324,0,0,329,
scooby_state_40307e|47|1 328,0,0,0,0,0,0,0,0,0,0,0,0,0,0,328,
scooby_state_402dc7|47|-2 0,0,0,0,0,0,0,0,0,0,0,0,328,0,0,328,
scooby_state_403012|1|-2 15,0,303,0,1,0,0,0,0,0,0,0,8,0,0,327,
scooby_state_403012|55|-2 29,0,291,0,0,0,0,0,0,0,0,0,7,0,0,327,
scooby_state_402dcb|9|-7 0,0,0,0,0,0,0,0,0,0,1,0,326,0,0,327,
scooby_state_403012|45|-2 18,1,297,0,0,0,0,0,0,0,0,0,8,0,0,324,
scooby_state_403012|33|-2 5,0,316,0,0,0,0,0,0,0,0,0,2,0,0,323,
scooby_state_403012|35|-2 13,0,299,0,0,0,1,0,0,0,0,0,7,0,0,320,
scooby_state_402dcb|15|14 82,0,0,0,0,0,0,1,0,0,0,0,237,0,0,320,
scooby_state_402dcb|5|-7 0,0,0,0,0,0,0,0,1,0,0,0,319,0,0,320,
scooby_state_402dc3|20|-11 318,0,0,0,0,0,0,1,0,0,0,0,0,0,0,319,
scooby_state_402dcb|47|-7 0,0,0,0,0,0,0,0,1,0,0,0,317,0,0,318,
scooby_state_402dc3|49|-11 316,0,0,0,0,0,1,0,0,0,0,0,0,0,0,317,
scooby_state_403012|57|-2 22,1,282,0,0,1,0,0,0,0,0,0,9,0,0,315,
scooby_state_402dcb|20|-3 3,0,0,0,0,0,0,1,0,0,0,0,310,0,0,314,
scooby_state_40307e|15|1 313,0,0,0,0,1,0,0,0,0,0,0,0,0,0,314,
scooby_state_402dc3|36|-11 312,0,1,0,0,0,0,0,0,0,0,0,0,0,0,313,
scooby_state_403012|43|-2 17,0,286,0,0,0,0,0,0,0,0,0,10,0,0,313,
scooby_state_40307e|56|-1 313,0,0,0,0,0,0,0,0,0,0,0,0,0,0,313,
scooby_state_402dcb|32|-3 0,0,0,0,0,0,0,0,0,0,0,2,311,0,0,313,
scooby_state_403012|11|-2 15,0,290,0,0,0,0,0,0,0,0,0,8,0,0,313,
scooby_state_402dcb|8|-7 0,0,0,0,0,0,0,0,0,0,0,0,312,0,0,312,
scooby_state_403012|37|-2 19,0,284,1,0,0,0,0,1,0,0,0,7,0,0,312,
scooby_state_40307e|41|-1 310,0,0,0,0,0,0,0,0,0,0,0,0,0,0,310,
scooby_state_40307e|15|0 309,0,0,0,0,0,0,0,0,0,0,0,0,0,0,309,
scooby_state_403012|47|-2 21,0,281,0,0,0,0,0,0,0,0,0,7,0,0,309,
scooby_state_403012|9|-2 14,0,284,0,0,0,0,0,0,0,0,1,9,0,0,308,
scooby_state_40307e|11|0 308,0,0,0,0,0,0,0,0,0,0,0,0,0,0,308,
scooby_state_40307e|32|-1 308,0,0,0,0,0,0,0,0,0,0,0,0,0,0,308,
scooby_state_40301c|34|-2 47,1,0,0,68,0,0,0,0,0,0,0,191,0,0,307,
scooby_state_402dcb|17|14 78,0,0,0,0,0,0,0,0,0,0,0,228,0,0,306,
scooby_state_403012|15|-2 12,0,290,1,0,0,0,0,0,0,0,0,3,0,0,306,
scooby_state_402dc3|33|-8 306,0,0,0,0,0,0,0,0,0,0,0,0,0,0,306,
scooby_state_402dcb|11|-7 0,0,0,0,0,0,0,0,0,0,0,0,305,0,0,305,
scooby_state_40307e|54|8 304,0,0,0,0,0,0,0,0,0,0,0,1,0,0,305,
scooby_state_402dcb|14|14 66,0,0,0,0,0,1,0,0,0,0,0,237,0,0,304,
scooby_state_402dcb|62|21 15,0,0,0,0,0,0,0,0,0,0,0,289,0,0,304,
scooby_state_403012|23|-2 11,0,288,0,0,0,0,0,0,0,0,0,4,0,0,303,
scooby_state_402dc7|24|-2 1,1,0,0,0,0,0,0,0,0,0,0,301,0,0,303,
scooby_state_403012|51|-2 18,0,273,0,0,0,0,0,0,0,0,0,11,0,0,302,
scooby_state_403012|53|-2 15,0,278,0,0,0,0,0,0,0,1,0,8,0,0,302,
scooby_state_403012|3|-2 24,0,273,0,0,0,0,0,0,0,0,0,5,0,0,302,
scooby_state_402dc7|15|-2 3,0,0,1,0,0,0,0,0,0,0,0,298,0,0,302,
scooby_state_402dcb|57|11 6,0,0,0,0,0,0,0,0,0,0,0,295,0,0,301,
scooby_state_402dcb|12|-7 0,0,0,0,0,0,0,0,0,0,0,0,301,0,0,301,
scooby_state_403012|13|-2 9,0,288,0,0,0,0,0,0,1,0,0,3,0,0,301,
scooby_state_402dc7|23|-2 4,0,0,0,0,1,0,0,0,0,0,0,295,0,0,300,
scooby_state_402dc3|17|-8 297,0,1,0,0,0,0,0,0,0,0,0,1,0,0,299,
scooby_state_402dcb|45|-3 0,0,0,0,1,0,0,0,0,1,0,11,284,0,0,297,
scooby_state_402dc7|33|-2 3,0,0,0,0,0,0,0,0,0,0,0,294,0,0,297,
scooby_state_402dc7|22|-2 2,0,0,0,0,0,0,0,0,0,0,0,294,0,0,296,
scooby_state_40307e|3|-1 295,0,0,0,0,0,0,0,0,0,0,0,0,0,0,295,
scooby_state_402dcb|13|-7 0,0,0,0,0,0,0,0,0,0,0,0,295,0,0,295,
scooby_state_402dcb|10|7 35,0,0,0,0,0,0,0,0,0,0,0,259,0,0,294,
scooby_state_402dcb|34|4 19,0,0,0,0,0,0,0,0,0,0,0,275,0,0,294,
scooby_state_402dcb|1|-4 0,0,0,0,0,0,0,0,0,0,0,0,292,0,0,292,
scooby_state_402dc7|19|-2 3,0,0,0,0,0,0,0,0,0,0,0,288,1,0,292,
scooby_state_402dcb|18|11 3,0,0,0,0,0,0,1,0,0,0,0,287,0,0,291,
scooby_state_402dc7|52|-2 5,0,0,0,0,0,0,0,0,1,0,0,281,0,0,287,
scooby_state_402dcb|5|3 0,0,0,0,1,0,0,0,0,0,0,0,285,0,0,286,
scooby_state_402dcb|62|8 21,0,0,0,0,0,0,0,0,0,0,0,264,0,0,285,
scooby_state_403012|59|-2 11,0,266,0,0,0,0,0,0,0,0,0,8,0,0,285,
scooby_state_40307e|39|-1 284,0,0,0,0,0,0,0,0,0,0,0,0,0,0,284,
scooby_state_402dcb|61|8 23,0,0,0,0,0,0,0,0,0,0,0,259,0,0,282,
scooby_state_402dcb|19|-7 0,0,0,0,0,0,0,0,0,0,0,0,281,0,0,281,
scooby_state_402dc3|1|-11 281,0,0,0,0,0,0,0,0,0,0,0,0,0,0,281,
scooby_state_402dcb|48|3 0,0,0,0,3,0,0,0,0,1,0,0,276,0,0,280,
scooby_state_402dc7|44|-2 4,0,0,0,0,0,0,0,0,0,0,0,276,0,0,280,
scooby_state_40307e|12|0 279,0,0,0,0,0,0,0,0,0,0,0,0,0,0,279,
scooby_state_402dc7|10|-2 1,0,0,0,0,0,0,0,0,0,0,0,275,0,0,276,
scooby_state_402dc7|28|-2 3,0,0,0,0,0,0,0,0,0,0,0,272,0,1,276,
scooby_state_40307e|43|-1 276,0,0,0,0,0,0,0,0,0,0,0,0,0,0,276,
scooby_state_402dc3|4|-11 273,0,0,0,0,0,0,0,0,0,0,0,0,0,0,273,
scooby_state_402dc7|56|-2 1,0,0,0,0,0,0,0,0,0,0,0,272,0,0,273,
scooby_state_40307e|43|0 271,0,0,0,0,0,0,0,0,0,1,0,0,0,0,272,
scooby_state_402dcb|0|-10 3,0,0,0,0,0,0,0,0,0,0,0,269,0,0,272,
scooby_state_402f72|51|0 231,3,3,3,2,3,2,2,1,2,2,1,5,2,10,272,
scooby_state_40307e|21|0 271,0,0,0,0,0,0,0,0,0,0,0,0,0,0,271,
scooby_state_402dcb|52|-7 0,0,1,0,0,0,0,0,0,0,0,0,270,0,0,271,
scooby_state_402dcb|60|4 18,0,0,0,0,0,0,0,0,0,0,0,252,0,0,270,
scooby_state_402dcb|34|11 0,0,0,0,0,0,0,0,0,0,0,0,269,0,0,269,
scooby_state_402dcb|7|3 0,0,0,0,1,0,0,0,0,1,0,0,266,0,0,268,
scooby_state_402dcb|20|-7 0,0,0,0,0,0,0,0,0,0,0,0,265,0,0,265,
scooby_state_402dcb|42|-7 0,0,0,0,0,0,0,0,0,0,0,0,264,1,0,265,
scooby_state_402dcb|3|-10 1,0,0,0,0,0,0,0,0,0,0,0,264,0,0,265,
scooby_state_402dc7|17|-2 2,0,0,0,0,0,0,0,0,0,0,0,263,0,0,265,
scooby_state_402dcb|32|3 0,0,0,0,1,0,0,0,1,1,0,0,261,0,0,264,
scooby_state_40307e|48|-1 264,0,0,0,0,0,0,0,0,0,0,0,0,0,0,264,
scooby_state_402dcb|30|-7 0,0,0,0,0,0,0,0,0,0,0,0,264,0,0,264,
scooby_state_402dcb|25|-7 0,0,0,0,0,0,0,1,0,0,0,0,263,0,0,264,
scooby_state_402dcb|61|18 203,1,1,0,0,0,0,0,0,0,0,0,58,0,0,263,
scooby_state_402dcb|18|4 13,1,0,0,0,0,0,0,0,0,0,0,249,0,0,263,
scooby_state_402dcb|9|7 24,0,0,0,0,0,0,0,1,0,0,0,236,0,0,261,
scooby_state_40307e|44|-1 259,0,0,0,0,0,0,0,0,0,0,0,0,0,0,259,
scooby_state_40307e|28|-1 258,0,0,0,0,0,0,0,0,0,0,0,0,0,0,258,
scooby_state_40307e|60|-1 258,0,0,0,0,0,0,0,0,0,0,0,0,0,0,258,
scooby_state_40307e|17|0 258,0,0,0,0,0,0,0,0,0,0,0,0,0,0,258,
scooby_state_402dc3|15|-11 257,0,0,0,0,0,0,0,0,0,0,0,0,0,0,257,
scooby_state_402dcb|14|-7 0,0,0,0,0,0,0,0,0,0,0,0,257,0,0,257,
scooby_state_402dcb|2|-10 2,0,0,0,0,0,0,0,0,0,0,0,254,0,0,256,
scooby_state_402dc7|8|-2 0,0,0,0,0,0,0,0,0,1,0,0,255,0,0,256,
scooby_state_402dcb|58|8 17,0,0,0,0,0,0,1,0,0,0,0,238,0,0,256,
scooby_state_402dcb|47|8 10,0,0,0,0,0,0,0,0,0,0,0,245,0,0,255,
scooby_state_40307e|47|0 255,0,0,0,0,0,0,0,0,0,0,0,0,0,0,255,
scooby_state_40307e|62|-1 253,0,0,0,0,0,0,0,0,0,0,0,0,0,0,253,
scooby_state_402dcb|2|-4 0,0,0,0,0,0,0,0,0,1,0,0,251,0,0,252,
scooby_state_40307e|42|-1 251,0,0,0,0,1,0,0,0,0,0,0,0,0,0,252,
scooby_state_40307e|51|-1 252,0,0,0,0,0,0,0,0,0,0,0,0,0,0,252,
scooby_state_402dcb|49|-7 1,0,0,1,0,0,0,0,0,0,0,0,249,0,1,252,
scooby_state_40307e|4|3 252,0,0,0,0,0,0,0,0,0,0,0,0,0,0,252,
scooby_state_402dc3|54|-8 251,0,0,0,0,0,0,0,0,0,0,0,0,0,0,251,
scooby_state_402dcb|19|18 166,0,0,0,0,0,0,0,0,0,0,0,84,0,0,250,
scooby_state_402dcb|43|-7 0,0,0,0,0,0,0,0,0,0,0,0,250,0,0,250,
scooby_state_402dc3|38|-21 250,0,0,0,0,0,0,0,0,0,0,0,0,0,0,250,
scooby_state_402dcb|62|11 4,0,0,0,0,0,0,0,0,0,0,0,245,0,0,249,
scooby_state_402dcb|35|-7 0,0,0,0,0,0,0,0,0,0,0,0,247,1,0,248,
scooby_state_402dcb|28|-7 0,0,0,0,0,0,0,0,0,0,0,0,248,0,0,248,
scooby_state_402dcb|16|-7 1,0,0,0,0,0,0,0,0,0,0,0,246,0,0,247,
scooby_state_402dc3|33|-11 245,1,0,0,0,0,0,0,0,1,0,0,0,0,0,247,
scooby_state_402dc3|12|-11 247,0,0,0,0,0,0,0,0,0,0,0,0,0,0,247,
scooby_state_402dcb|36|-7 0,0,0,1,0,0,0,0,0,0,0,0,245,0,0,246,
scooby_state_40307e|35|-1 246,0,0,0,0,0,0,0,0,0,0,0,0,0,0,246,
scooby_state_402f40|15|-1 244,0,0,0,0,0,0,0,0,0,0,0,0,0,0,244,
scooby_state_40307e|59|0 242,0,1,0,0,0,0,0,0,0,0,0,0,0,0,243,
scooby_state_402dcb|16|3 0,0,0,0,2,0,0,0,0,0,0,3,238,0,0,243,
scooby_state_402dcb|48|11 2,0,0,0,0,0,0,0,0,0,1,0,240,0,0,243,
scooby_state_402dc3|25|-11 243,0,0,0,0,0,0,0,0,0,0,0,0,0,0,243,
scooby_state_402dc3|2|-21 241,0,0,0,0,0,0,0,0,0,1,0,0,0,0,242,
[...]
scooby_state_40301c|30|-11 0,0,0,0,1,0,0,0,0,0,0,0,0,0,0,1,
scooby_state_403012|34|-3 1,0,0,0,0,0,0,0,0,0,0,0,0,0,0,1,
scooby_state_403083|14|-29 1,0,0,0,0,0,0,0,0,0,0,0,0,0,0,1,
scooby_state_403012|37|-13 0,0,1,0,0,0,0,0,0,0,0,0,0,0,0,1,
scooby_state_40301c|43|4 0,0,0,0,1,0,0,0,0,0,0,0,0,0,0,1,
scooby_state_40301c|52|0 1,0,0,0,0,0,0,0,0,0,0,0,0,0,0,1,
scooby_state_403012|34|-14 0,0,1,0,0,0,0,0,0,0,0,0,0,0,0,1,
scooby_state_403039|12|0 0,0,0,0,0,0,0,0,0,0,0,0,1,0,0,1,
scooby_state_403012|42|-10 0,0,1,0,0,0,0,0,0,0,0,0,0,0,0,1,
scooby_state_403012|55|-5 0,0,1,0,0,0,0,0,0,0,0,0,0,0,0,1,
scooby_state_402dc3|9|-45 1,0,0,0,0,0,0,0,0,0,0,0,0,0,0,1,
scooby_state_403083|14|-14 1,0,0,0,0,0,0,0,0,0,0,0,0,0,0,1,
scooby_state_403039|63|29 0,0,0,0,0,0,0,0,0,0,0,1,0,0,0,1,
scooby_state_40301c|44|-15 0,0,0,0,0,0,0,0,0,0,0,0,1,0,0,1,
scooby_state_403012|5|-12 0,0,1,0,0,0,0,0,0,0,0,0,0,0,0,1,
scooby_state_40307e|29|-27 1,0,0,0,0,0,0,0,0,0,0,0,0,0,0,1,
scooby_state_40307e|0|-56 1,0,0,0,0,0,0,0,0,0,0,0,0,0,0,1,
scooby_state_403039|63|36 0,0,0,0,0,0,0,0,0,0,0,1,0,0,0,1,
scooby_state_40307e|12|-29 1,0,0,0,0,0,0,0,0,0,0,0,0,0,0,1,
scooby_state_40307e|35|-20 1,0,0,0,0,0,0,0,0,0,0,0,0,0,0,1,
scooby_state_403012|23|-10 0,0,1,0,0,0,0,0,0,0,0,0,0,0,0,1,
scooby_state_40301c|14|-10 1,0,0,0,0,0,0,0,0,0,0,0,0,0,0,1,
scooby_state_403083|60|42 1,0,0,0,0,0,0,0,0,0,0,0,0,0,0,1,
scooby_state_403083|57|-4 1,0,0,0,0,0,0,0,0,0,0,0,0,0,0,1,
scooby_state_403083|4|-14 1,0,0,0,0,0,0,0,0,0,0,0,0,0,0,1,
scooby_state_403083|23|-5 1,0,0,0,0,0,0,0,0,0,0,0,0,0,0,1,
scooby_state_403039|0|-8 0,0,0,0,0,0,0,0,0,0,0,1,0,0,0,1,
scooby_state_403012|38|-13 0,0,1,0,0,0,0,0,0,0,0,0,0,0,0,1,
scooby_state_403012|8|-32 0,0,1,0,0,0,0,0,0,0,0,0,0,0,0,1,
scooby_state_40307e|29|-22 1,0,0,0,0,0,0,0,0,0,0,0,0,0,0,1,
scooby_state_403039|6|-11 1,0,0,0,0,0,0,0,0,0,0,0,0,0,0,1,
scooby_state_40301c|38|-9 0,0,0,0,1,0,0,0,0,0,0,0,0,0,0,1,
scooby_state_403012|40|-23 0,0,1,0,0,0,0,0,0,0,0,0,0,0,0,1,
scooby_state_403083|40|-20 0,0,1,0,0,0,0,0,0,0,0,0,0,0,0,1,
scooby_state_403012|55|-3 1,0,0,0,0,0,0,0,0,0,0,0,0,0,0,1,
scooby_state_403039|8|-5 0,0,0,0,0,0,0,0,0,0,0,1,0,0,0,1,
scooby_state_40307e|8|-39 1,0,0,0,0,0,0,0,0,0,0,0,0,0,0,1,
scooby_state_403012|2|-50 0,0,1,0,0,0,0,0,0,0,0,0,0,0,0,1,
scooby_state_403012|55|7 1,0,0,0,0,0,0,0,0,0,0,0,0,0,0,1,
scooby_state_40307e|43|27 1,0,0,0,0,0,0,0,0,0,0,0,0,0,0,1,
scooby_state_403083|28|-11 1,0,0,0,0,0,0,0,0,0,0,0,0,0,0,1,
scooby_state_403012|32|-23 0,0,1,0,0,0,0,0,0,0,0,0,0,0,0,1,
scooby_state_402dfb|49|-9 1,0,0,0,0,0,0,0,0,0,0,0,0,0,0,1,
scooby_state_403039|24|-5 0,0,0,0,0,0,0,0,0,0,0,0,1,0,0,1,
scooby_state_40307e|28|20 1,0,0,0,0,0,0,0,0,0,0,0,0,0,0,1,
scooby_state_40301c|32|-14 0,0,0,0,1,0,0,0,0,0,0,0,0,0,0,1,
scooby_state_402dcb|27|-27 1,0,0,0,0,0,0,0,0,0,0,0,0,0,0,1,
scooby_state_403039|4|-1 0,0,0,0,0,0,0,0,0,0,0,1,0,0,0,1,
scooby_state_403012|1|-9 0,0,0,0,0,0,0,0,0,0,0,0,1,0,0,1,
scooby_state_402d79|52|-2 1,0,0,0,0,0,0,0,0,0,0,0,0,0,0,1,
scooby_state_403083|23|-37 1,0,0,0,0,0,0,0,0,0,0,0,0,0,0,1,
scooby_state_402dc7|16|-10 0,0,0,0,0,0,0,0,0,0,0,0,1,0,0,1,
scooby_state_403012|62|14 1,0,0,0,0,0,0,0,0,0,0,0,0,0,0,1,
scooby_state_402dc7|23|8 0,0,0,0,0,0,0,0,0,0,0,0,1,0,0,1,
scooby_state_402dfb|16|6 0,0,0,0,0,0,0,0,0,0,0,1,0,0,0,1,
scooby_state_403012|3|-54 0,0,1,0,0,0,0,0,0,0,0,0,0,0,0,1,
scooby_state_403083|63|11 1,0,0,0,0,0,0,0,0,0,0,0,0,0,0,1,
scooby_state_403012|5|-30 1,0,0,0,0,0,0,0,0,0,0,0,0,0,0,1,
scooby_state_403083|62|8 1,0,0,0,0,0,0,0,0,0,0,0,0,0,0,1,
scooby_state_402dc7|40|-11 0,0,0,0,0,0,0,0,0,0,0,0,1,0,0,1,
scooby_state_40307e|5|-40 1,0,0,0,0,0,0,0,0,0,0,0,0,0,0,1,
scooby_state_403012|9|-18 1,0,0,0,0,0,0,0,0,0,0,0,0,0,0,1,
scooby_state_403083|43|-18 1,0,0,0,0,0,0,0,0,0,0,0,0,0,0,1,
scooby_state_402dc7|38|-10 0,0,0,0,0,0,0,0,0,0,0,0,1,0,0,1,
scooby_state_403083|2|-34 1,0,0,0,0,0,0,0,0,0,0,0,0,0,0,1,
scooby_state_40307e|4|-9 1,0,0,0,0,0,0,0,0,0,0,0,0,0,0,1,
scooby_state_402dcb|26|20 1,0,0,0,0,0,0,0,0,0,0,0,0,0,0,1,
scooby_state_41d4c1|19|-1 0,0,1,0,0,0,0,0,0,0,0,0,0,0,0,1,
scooby_state_403083|29|-5 1,0,0,0,0,0,0,0,0,0,0,0,0,0,0,1,
scooby_state_41a9be|38|1 1,0,0,0,0,0,0,0,0,0,0,0,0,0,0,1,
scooby_state_40307e|18|-35 1,0,0,0,0,0,0,0,0,0,0,0,0,0,0,1,
scooby_state_402dfb|18|7 0,0,0,0,0,0,0,0,0,0,0,1,0,0,0,1,
scooby_state_403012|8|-27 0,0,1,0,0,0,0,0,0,0,0,0,0,0,0,1,
scooby_state_403083|35|3 1,0,0,0,0,0,0,0,0,0,0,0,0,0,0,1,
scooby_state_402dc7|31|-10 0,0,0,0,0,0,0,0,0,0,0,0,1,0,0,1,
scooby_state_403083|4|-13 1,0,0,0,0,0,0,0,0,0,0,0,0,0,0,1,
scooby_state_403012|24|-29 0,0,1,0,0,0,0,0,0,0,0,0,0,0,0,1,
scooby_state_403083|42|-5 0,0,0,0,0,0,0,0,0,0,0,0,1,0,0,1,
scooby_state_402dc7|37|5 1,0,0,0,0,0,0,0,0,0,0,0,0,0,0,1,
scooby_state_403012|43|-9 0,0,1,0,0,0,0,0,0,0,0,0,0,0,0,1,
scooby_state_40307e|62|56 1,0,0,0,0,0,0,0,0,0,0,0,0,0,0,1,
scooby_state_402e04|58|0 1,0,0,0,0,0,0,0,0,0,0,0,0,0,0,1,
scooby_state_403083|53|-6 1,0,0,0,0,0,0,0,0,0,0,0,0,0,0,1,
scooby_state_403012|63|30 0,0,1,0,0,0,0,0,0,0,0,0,0,0,0,1,
scooby_state_402dcb|37|-20 0,0,0,0,0,0,0,0,0,0,0,0,1,0,0,1,
scooby_state_40307e|22|-27 1,0,0,0,0,0,0,0,0,0,0,0,0,0,0,1,
scooby_state_403083|55|8 1,0,0,0,0,0,0,0,0,0,0,0,0,0,0,1,
scooby_state_403083|39|-6 1,0,0,0,0,0,0,0,0,0,0,0,0,0,0,1,
scooby_state_403083|6|-12 1,0,0,0,0,0,0,0,0,0,0,0,0,0,0,1,
scooby_state_403083|60|14 1,0,0,0,0,0,0,0,0,0,0,0,0,0,0,1,
scooby_state_403083|42|-18 1,0,0,0,0,0,0,0,0,0,0,0,0,0,0,1,
scooby_state_403012|2|-14 0,0,1,0,0,0,0,0,0,0,0,0,0,0,0,1,
scooby_state_403039|58|-1 0,0,0,0,0,0,0,0,0,0,0,1,0,0,0,1,
scooby_state_403083|6|-2 1,0,0,0,0,0,0,0,0,0,0,0,0,0,0,1,
scooby_state_403012|12|-29 1,0,0,0,0,0,0,0,0,0,0,0,0,0,0,1,
scooby_state_402dfb|27|8 1,0,0,0,0,0,0,0,0,0,0,0,0,0,0,1,
scooby_state_402dc7|43|-10 0,0,0,0,0,0,0,0,0,0,0,0,1,0,0,1,
scooby_state_403012|36|-11 1,0,0,0,0,0,0,0,0,0,0,0,0,0,0,1,
scooby_state_40307e|0|-53 1,0,0,0,0,0,0,0,0,0,0,0,0,0,0,1,
scooby_state_403012|3|-5 0,0,1,0,0,0,0,0,0,0,0,0,0,0,0,1,
scooby_state_402e04|62|-1 1,0,0,0,0,0,0,0,0,0,0,0,0,0,0,1,
scooby_state_40307e|47|32 1,0,0,0,0,0,0,0,0,0,0,0,0,0,0,1,
scooby_state_403012|29|-26 0,0,1,0,0,0,0,0,0,0,0,0,0,0,0,1,
scooby_state_403083|44|-18 1,0,0,0,0,0,0,0,0,0,0,0,0,0,0,1,
scooby_state_403012|35|-18 1,0,0,0,0,0,0,0,0,0,0,0,0,0,0,1,
scooby_state_40307e|42|-20 1,0,0,0,0,0,0,0,0,0,0,0,0,0,0,1,
scooby_state_40307e|24|-32 1,0,0,0,0,0,0,0,0,0,0,0,0,0,0,1,
scooby_state_40307e|44|43 1,0,0,0,0,0,0,0,0,0,0,0,0,0,0,1,
scooby_state_403083|48|-14 1,0,0,0,0,0,0,0,0,0,0,0,0,0,0,1,
scooby_state_403083|43|-2 1,0,0,0,0,0,0,0,0,0,0,0,0,0,0,1,
scooby_state_40301c|61|9 0,0,0,0,0,0,0,0,0,0,0,0,1,0,0,1,
scooby_state_40307e|23|-25 1,0,0,0,0,0,0,0,0,0,0,0,0,0,0,1,
scooby_state_403012|24|15 1,0,0,0,0,0,0,0,0,0,0,0,0,0,0,1,
scooby_state_403012|32|-18 1,0,0,0,0,0,0,0,0,0,0,0,0,0,0,1,
scooby_state_40307e|44|36 1,0,0,0,0,0,0,0,0,0,0,0,0,0,0,1,
scooby_state_403039|60|4 0,0,0,0,0,0,0,0,0,0,0,1,0,0,0,1,
scooby_state_40301c|4|-13 1,0,0,0,0,0,0,0,0,0,0,0,0,0,0,1,
scooby_state_40307e|33|27 1,0,0,0,0,0,0,0,0,0,0,0,0,0,0,1,
scooby_state_40301c|8|-6 0,0,0,0,1,0,0,0,0,0,0,0,0,0,0,1,
scooby_state_40301c|32|0 0,0,0,0,1,0,0,0,0,0,0,0,0,0,0,1,
scooby_state_403083|42|-2 1,0,0,0,0,0,0,0,0,0,0,0,0,0,0,1,
scooby_state_403083|47|38 1,0,0,0,0,0,0,0,0,0,0,0,0,0,0,1,
scooby_state_40307e|31|-27 1,0,0,0,0,0,0,0,0,0,0,0,0,0,0,1,
scooby_state_403012|25|-36 1,0,0,0,0,0,0,0,0,0,0,0,0,0,0,1,
scooby_state_403012|18|-5 0,0,1,0,0,0,0,0,0,0,0,0,0,0,0,1,
scooby_state_403012|36|-10 0,0,1,0,0,0,0,0,0,0,0,0,0,0,0,1,
scooby_state_403012|26|-5 0,0,1,0,0,0,0,0,0,0,0,0,0,0,0,1,
scooby_state_403083|40|-1 1,0,0,0,0,0,0,0,0,0,0,0,0,0,0,1,
scooby_state_403012|16|-20 0,0,1,0,0,0,0,0,0,0,0,0,0,0,0,1,
scooby_state_403012|38|-22 0,0,1,0,0,0,0,0,0,0,0,0,0,0,0,1,
scooby_state_403012|22|-18 1,0,0,0,0,0,0,0,0,0,0,0,0,0,0,1,
scooby_state_40307e|50|36 1,0,0,0,0,0,0,0,0,0,0,0,0,0,0,1,
scooby_state_403039|22|-32 0,0,0,0,0,0,0,0,0,0,0,1,0,0,0,1,
scooby_state_403012|8|-13 1,0,0,0,0,0,0,0,0,0,0,0,0,0,0,1,
scooby_state_403104|4|1 1,0,0,0,0,0,0,0,0,0,0,0,0,0,0,1,
scooby_state_403012|25|-3 1,0,0,0,0,0,0,0,0,0,0,0,0,0,0,1,
scooby_state_40307e|17|-29 1,0,0,0,0,0,0,0,0,0,0,0,0,0,0,1,
scooby_state_403083|58|5 1,0,0,0,0,0,0,0,0,0,0,0,0,0,0,1,
scooby_state_403039|51|15 0,0,0,0,0,0,0,0,0,0,0,1,0,0,0,1,
scooby_state_402d9f|2|0 1,0,0,0,0,0,0,0,0,0,0,0,0,0,0,1,
scooby_state_40307e|28|-18 1,0,0,0,0,0,0,0,0,0,0,0,0,0,0,1,
scooby_state_403083|41|-2 1,0,0,0,0,0,0,0,0,0,0,0,0,0,0,1,
scooby_state_403039|19|-1 1,0,0,0,0,0,0,0,0,0,0,0,0,0,0,1,
scooby_state_402dc7|42|5 1,0,0,0,0,0,0,0,0,0,0,0,0,0,0,1,
scooby_state_403012|4|-14 0,0,1,0,0,0,0,0,0,0,0,0,0,0,0,1,
scooby_state_403012|28|-5 0,0,1,0,0,0,0,0,0,0,0,0,0,0,0,1,
scooby_state_402dfb|27|9 0,0,0,0,0,0,0,0,0,0,0,1,0,0,0,1,
scooby_state_403083|2|-18 1,0,0,0,0,0,0,0,0,0,0,0,0,0,0,1,
scooby_state_40301c|1|-19 1,0,0,0,0,0,0,0,0,0,0,0,0,0,0,1,
scooby_state_403012|40|-22 1,0,0,0,0,0,0,0,0,0,0,0,0,0,0,1,
scooby_state_40307e|50|25 1,0,0,0,0,0,0,0,0,0,0,0,0,0,0,1,
scooby_state_403083|0|-49 1,0,0,0,0,0,0,0,0,0,0,0,0,0,0,1,
scooby_state_403083|14|-16 1,0,0,0,0,0,0,0,0,0,0,0,0,0,0,1,
scooby_state_403083|34|-19 0,0,0,0,0,0,0,0,0,0,0,0,1,0,0,1,
scooby_state_40307e|10|-11 1,0,0,0,0,0,0,0,0,0,0,0,0,0,0,1,
scooby_state_40307e|32|18 1,0,0,0,0,0,0,0,0,0,0,0,0,0,0,1,
scooby_state_403039|56|0 0,0,0,0,0,0,0,0,0,0,0,1,0,0,0,1,
scooby_state_40307e|63|27 1,0,0,0,0,0,0,0,0,0,0,0,0,0,0,1,
scooby_state_403012|4|-11 0,0,1,0,0,0,0,0,0,0,0,0,0,0,0,1,
scooby_state_402dfb|9|-9 1,0,0,0,0,0,0,0,0,0,0,0,0,0,0,1,
scooby_state_40301c|12|-11 1,0,0,0,0,0,0,0,0,0,0,0,0,0,0,1,
scooby_state_40307e|8|-18 1,0,0,0,0,0,0,0,0,0,0,0,0,0,0,1,
scooby_state_40301c|32|-13 1,0,0,0,0,0,0,0,0,0,0,0,0,0,0,1,
scooby_state_40301c|63|49 0,0,0,0,1,0,0,0,0,0,0,0,0,0,0,1,
scooby_state_402dc3|9|-38 1,0,0,0,0,0,0,0,0,0,0,0,0,0,0,1,
scooby_state_403012|28|-32 1,0,0,0,0,0,0,0,0,0,0,0,0,0,0,1,
scooby_state_402dc7|26|9 0,0,0,0,0,0,0,0,0,0,0,0,1,0,0,1,
scooby_state_402dfb|33|-9 1,0,0,0,0,0,0,0,0,0,0,0,0,0,0,1,
scooby_state_40307e|38|25 1,0,0,0,0,0,0,0,0,0,0,0,0,0,0,1,
scooby_state_41acc5|51|1 1,0,0,0,0,0,0,0,0,0,0,0,0,0,0,1,
scooby_state_402db2|54|-9 1,0,0,0,0,0,0,0,0,0,0,0,0,0,0,1,
scooby_state_40307e|12|-13 1,0,0,0,0,0,0,0,0,0,0,0,0,0,0,1,
scooby_state_402e04|60|-2 0,0,0,0,0,0,0,0,0,0,0,1,0,0,0,1,
scooby_state_403012|40|-13 0,0,1,0,0,0,0,0,0,0,0,0,0,0,0,1,
scooby_state_40301c|17|-22 1,0,0,0,0,0,0,0,0,0,0,0,0,0,0,1,
scooby_state_403083|30|-25 1,0,0,0,0,0,0,0,0,0,0,0,0,0,0,1,
scooby_state_403083|8|-13 0,0,0,0,0,0,0,0,0,0,0,1,0,0,0,1,
scooby_state_403039|32|-3 1,0,0,0,0,0,0,0,0,0,0,0,0,0,0,1,
scooby_state_403012|4|-21 0,0,1,0,0,0,0,0,0,0,0,0,0,0,0,1,
scooby_state_403012|51|7 1,0,0,0,0,0,0,0,0,0,0,0,0,0,0,1,
scooby_state_40301c|33|-11 0,0,0,0,0,0,0,0,0,0,0,0,1,0,0,1,
scooby_state_40307e|49|34 1,0,0,0,0,0,0,0,0,0,0,0,0,0,0,1,
scooby_state_402dc7|20|-9 0,0,0,0,0,0,0,0,0,0,0,0,1,0,0,1,
scooby_state_40307e|7|-48 1,0,0,0,0,0,0,0,0,0,0,0,0,0,0,1,
scooby_state_402dcb|19|-20 0,0,0,0,0,0,0,0,0,0,0,0,1,0,0,1,
scooby_state_403083|55|13 1,0,0,0,0,0,0,0,0,0,0,0,0,0,0,1,
scooby_state_40301c|23|2 1,0,0,0,0,0,0,0,0,0,0,0,0,0,0,1,
scooby_state_403012|28|-28 0,0,1,0,0,0,0,0,0,0,0,0,0,0,0,1,
scooby_state_40307e|21|-18 1,0,0,0,0,0,0,0,0,0,0,0,0,0,0,1,
scooby_state_403012|47|-15 0,0,1,0,0,0,0,0,0,0,0,0,0,0,0,1,
scooby_state_403083|5|-47 1,0,0,0,0,0,0,0,0,0,0,0,0,0,0,1,
scooby_state_403012|2|-11 1,0,0,0,0,0,0,0,0,0,0,0,0,0,0,1,
scooby_state_40307e|12|-42 1,0,0,0,0,0,0,0,0,0,0,0,0,0,0,1,
scooby_state_40301c|28|-5 1,0,0,0,0,0,0,0,0,0,0,0,0,0,0,1,
scooby_state_40307e|4|-25 1,0,0,0,0,0,0,0,0,0,0,0,0,0,0,1,
scooby_state_402d9f|7|0 0,0,0,1,0,0,0,0,0,0,0,0,0,0,0,1,
scooby_state_403012|12|-33 0,0,1,0,0,0,0,0,0,0,0,0,0,0,0,1,
scooby_state_403039|63|21 0,0,0,0,0,0,0,0,0,0,0,1,0,0,0,1,
scooby_state_403012|54|-5 1,0,0,0,0,0,0,0,0,0,0,0,0,0,0,1,
scooby_state_403039|20|-5 0,0,0,0,0,0,0,0,0,0,0,1,0,0,0,1,
scooby_state_40307e|54|43 1,0,0,0,0,0,0,0,0,0,0,0,0,0,0,1,
scooby_state_402d96|35|-1 0,0,0,0,0,0,0,0,0,0,0,0,1,0,0,1,
scooby_state_40301c|57|0 0,0,0,0,0,0,0,0,0,0,0,0,1,0,0,1,
scooby_state_403083|7|6 1,0,0,0,0,0,0,0,0,0,0,0,0,0,0,1,
scooby_state_40301c|38|-23 0,0,0,0,1,0,0,0,0,0,0,0,0,0,0,1,
scooby_state_40301c|44|-7 0,0,0,0,0,0,0,0,0,0,0,0,1,0,0,1,
scooby_state_40301c|0|-25 1,0,0,0,0,0,0,0,0,0,0,0,0,0,0,1,
scooby_state_402e04|63|0 1,0,0,0,0,0,0,0,0,0,0,0,0,0,0,1,
scooby_state_40307e|15|-36 1,0,0,0,0,0,0,0,0,0,0,0,0,0,0,1,
scooby_state_40301c|48|-14 1,0,0,0,0,0,0,0,0,0,0,0,0,0,0,1,
scooby_state_40301c|12|-16 0,0,0,0,0,0,0,0,0,0,0,0,1,0,0,1,
scooby_state_403012|18|-18 1,0,0,0,0,0,0,0,0,0,0,0,0,0,0,1,
scooby_state_403012|42|-9 0,0,0,0,0,0,0,0,0,0,0,0,1,0,0,1,
scooby_state_402ff0|63|0 1,0,0,0,0,0,0,0,0,0,0,0,0,0,0,1,
scooby_state_403012|2|-33 0,0,1,0,0,0,0,0,0,0,0,0,0,0,0,1,

scooby_action_0_deg_dist 0,26048,0,0,0,0,0,0,0,0,0,0,0,0,0,0,
scooby_action_-6_deg_dist 0,207,0,0,0,0,0,0,0,0,0,0,0,0,0,0,
scooby_action_4_deg_dist 0,24907,1109,0,102,0,42,0,0,0,0,0,0,0,0,0,
scooby_action_1_deg_dist 0,129893,71117,0,138436,0,243535,0,0,0,0,0,0,0,0,0,
scooby_action_30_deg_dist 0,290,4,0,5,0,11,0,0,0,0,0,0,0,0,0,
scooby_action_5_deg_dist 0,292,12,0,27,0,50,0,0,0,0,0,0,0,0,0,
scooby_action_3_deg_dist 0,546,17,0,27,0,37,0,0,0,0,0,0,0,0,0,
scooby_action_32_deg_dist 0,260,9,0,13,0,20,0,0,0,0,0,0,0,0,0,
scooby_action_10_deg_dist 0,3305,23,0,16,0,26,0,0,0,0,0,0,0,0,0,
scooby_action_11_deg_dist 0,260,14,0,26,0,35,0,0,0,0,0,0,0,0,0,
scooby_action_12_deg_dist 0,279,10,0,22,0,24,0,0,0,0,0,0,0,0,0,
scooby_action_22_deg_dist 0,289,12,0,29,0,23,0,0,0,0,0,0,0,0,0,
scooby_action_23_deg_dist 0,268,13,0,25,0,27,0,0,0,0,0,0,0,0,0,
scooby_action_-1_deg_dist 0,52635,24114,0,53584,0,242988,0,0,0,0,0,0,0,0,0,
scooby_action_-3_deg_dist 0,150234,50519,0,48914,0,25479,0,0,0,0,0,0,0,0,0,

scooby_track_called 1290209
scooby_track_same_address 190191
scooby_track_evict 1099762

scooby_reward_demand_called 1290209
scooby_reward_demand_pt_not_found 615183
scooby_reward_demand_pt_found 675026
scooby_reward_demand_pt_found_total 675026
scooby_reward_demand_has_reward 532
scooby_reward_train_called 393630
scooby_reward_assign_reward_called 1099937
scooby_reward_no_pref 26039
scooby_reward_incorrect 367591
scooby_reward_correct_untimely 388188
scooby_reward_correct_timely 286306
scooby_reward_out_of_bounds 31813
scooby_reward_tracker_hit 0

scooby_reward_none_low_bw 26039
scooby_reward_none_high_bw 0
scooby_reward_incorrect_low_bw 367591
scooby_reward_incorrect_high_bw 0
scooby_reward_correct_untimely_low_bw 388188
scooby_reward_correct_untimely_high_bw 0
scooby_reward_correct_timely_low_bw 286306
scooby_reward_correct_timely_high_bw 0
scooby_reward_out_of_bounds_low_bw 31813
scooby_reward_out_of_bounds_high_bw 0
scooby_reward_tracker_hit_low_bw 0
scooby_reward_tracker_hit_high_bw 0

scooby_reward_1 0,164751,136371,198862,9857,0,
scooby_reward_3 0,304,35,6,28,0,
scooby_reward_4 0,13431,4263,3367,1495,0,
scooby_reward_5 0,282,2,8,25,0,
scooby_reward_10 0,1669,179,786,497,0,
scooby_reward_11 0,206,0,12,49,0,
scooby_reward_12 0,207,1,8,66,0,
scooby_reward_22 0,181,0,7,121,0,
scooby_reward_23 0,168,0,7,123,0,
scooby_reward_30 0,96,0,4,181,0,
scooby_reward_32 0,116,0,4,153,0,
scooby_reward_-1 0,112573,205306,28123,5881,0,
scooby_reward_-3 0,73500,42022,55064,13320,0,
scooby_reward_-6 0,107,9,48,17,0,
scooby_reward_0 26039,0,0,0,0,0,

scooby_train_called 1099761
scooby_train_compute_reward 393630

scooby_register_fill_called 1340031
scooby_register_fill_set 451860
scooby_register_fill_set_total 451860

scooby_register_prefetch_hit_called 1728064
scooby_register_prefetch_hit_set 628984
scooby_register_prefetch_hit_set_total 628984

scooby_pref_issue_scooby 3953542

learning_engine_featurewise.action.called 1290209
learning_engine_featurewise.action.explore 2379
learning_engine_featurewise.action.exploit 1287830
learning_engine_featurewise.action.fallback 0
learning_engine_featurewise.action.dyn_fallback_saved_bw 0
learning_engine_featurewise.action.dyn_fallback_saved_bw_acc 14852
learning_engine_featurewise.action.index_1_explored 155
learning_engine_featurewise.action.index_1_exploited 582826
learning_engine_featurewise.action.index_3_explored 174
learning_engine_featurewise.action.index_3_exploited 453
learning_engine_featurewise.action.index_4_explored 161
learning_engine_featurewise.action.index_4_exploited 25999
learning_engine_featurewise.action.index_5_explored 154
learning_engine_featurewise.action.index_5_exploited 227
learning_engine_featurewise.action.index_10_explored 179
learning_engine_featurewise.action.index_10_exploited 3191
learning_engine_featurewise.action.index_11_explored 149
learning_engine_featurewise.action.index_11_exploited 186
learning_engine_featurewise.action.index_12_explored 161
learning_engine_featurewise.action.index_12_exploited 174
learning_engine_featurewise.action.index_22_explored 167
learning_engine_featurewise.action.index_22_exploited 186
learning_engine_featurewise.action.index_23_explored 160
learning_engine_featurewise.action.index_23_exploited 173
learning_engine_featurewise.action.index_30_explored 167
learning_engine_featurewise.action.index_30_exploited 143
learning_engine_featurewise.action.index_32_explored 139
learning_engine_featurewise.action.index_32_exploited 163
learning_engine_featurewise.action.index_-1_explored 150
learning_engine_featurewise.action.index_-1_exploited 373171
learning_engine_featurewise.action.index_-3_explored 154
learning_engine_featurewise.action.index_-3_exploited 274992
learning_engine_featurewise.action.index_-6_explored 145
learning_engine_featurewise.action.index_-6_exploited 62
learning_engine_featurewise.action.index_0_explored 164
learning_engine_featurewise.action.index_0_exploited 25884
learning_engine_featurewise.learn.called 1099761
learning_engine_featurewise.learn.su_skip_PC 0
learning_engine_featurewise.learn.su_skip_PC_Delta 0

learning_engine_featurewise.q_value_histogram.bucket_0 0
learning_engine_featurewise.q_value_histogram.bucket_1 0
learning_engine_featurewise.q_value_histogram.bucket_2 108
learning_engine_featurewise.q_value_histogram.bucket_3 6024
learning_engine_featurewise.q_value_histogram.bucket_4 25311
learning_engine_featurewise.q_value_histogram.bucket_5 232304
learning_engine_featurewise.q_value_histogram.bucket_6 1024083
learning_engine_featurewise.q_value_histogram.bucket_7 0

learning_engine_featurewise.consensus.total 1287830
learning_engine_featurewise.consensus.feature_align_PC 1236113
learning_engine_featurewise.consensus.feature_align_PC_ratio 0.96
learning_engine_featurewise.consensus.feature_align_PC_Delta 1128348
learning_engine_featurewise.consensus.feature_align_PC_Delta_ratio 0.88
learning_engine_featurewise.consensus.feature_align_all 1076631
learning_engine_featurewise.consensus.feature_align_all_ratio 0.84

learning_engine_featurewise.feature_PC_min_weight 1000000.00000000
learning_engine_featurewise.feature_PC_max_weight 0.00000000
learning_engine_featurewise.feature_PC_Delta_min_weight 1000000.00000000
learning_engine_featurewise.feature_PC_Delta_max_weight 0.00000000
unique_pcs 76
unique_pages 16529
unique_trigger_pcs 40
total_bitmaps_seen 0
unique_bitmaps_seen 0

scooby_bw_epochs 465187
scooby_bw_level_0 259738
scooby_bw_level_1 107577
scooby_bw_level_2 29770
scooby_bw_level_3 68102

scooby_ipc_epochs 0
scooby_ipc_level_0 0
scooby_ipc_level_1 0
scooby_ipc_level_2 0
scooby_ipc_level_3 0

scooby_cache_acc_epochs 112961
scooby_cache_acc_level_0 12
scooby_cache_acc_level_1 455
scooby_cache_acc_level_2 2611
scooby_cache_acc_level_3 6567
scooby_cache_acc_level_4 22372
scooby_cache_acc_level_5 20941
scooby_cache_acc_level_6 15679
scooby_cache_acc_level_7 12191
scooby_cache_acc_level_8 8626
scooby_cache_acc_level_9 23507

Channel_0_RQ_row_buffer_hit 911910
Channel_0_RQ_row_buffer_miss 815230
Channel_0_WQ_row_buffer_hit 31816
Channel_0_WQ_row_buffer_miss 259209
Channel_0_WQ_full 0
Channel_0_dbus_congested 1226751

avg_congested_cycle 10

DRAM_bw_pochs 465187
DRAM_bw_level_0 259738
DRAM_bw_level_1 107577
DRAM_bw_level_2 29770
DRAM_bw_level_3 68102
