*************************************************
   ChampSim Multicore Out-of-Order Simulator
   Last compiled: Apr  3 2025 20:54:34
*************************************************
parsing config file: /home/zir/Pythia/config/spp_dev2.ini

trace_0 /home/zir/ChampSim/ML-DPC/ChampSimTraces/spec06/471.omnetpp-s2.trace.gz
adding L2C_PREFETCHER: SPP_dev2
Initialize SIGNATURE TABLE
ST_SET: 1
ST_WAY: 256
ST_TAG_BIT: 16
ST_TAG_MASK: ffff

Initialize PATTERN TABLE
PT_SET: 512
PT_WAY: 4
SIG_DELTA_BIT: 7
C_SIG_BIT: 4
C_DELTA_BIT: 4

Initialize PREFETCH FILTER
FILTER_SET: 1024
fill_threshold: 90
pf_threshold: 40

Initialize SHIP state
warmup_instructions 10000000
simulation_instructions 50000000
champsim_seed 165
measure_ipc 0
measure_ipc_epoch 1000
measure_dram_bw 1
measure_dram_bw_epoch 256
measure_cache_acc 1
measure_cache_acc_epoch 1024
l1d_perfect 0
l2c_perfect 0
llc_perfect 0
l1d_semi_perfect 0
l2c_semi_perfect 0
llc_semi_perfect 0
semi_perfect_cache_page_buffer_size 64

num_cpus 1
cpu_freq 4000
dram_io_freq 2400
page_size 4096
block_size 64
max_read_per_cycle 8
max_fill_per_cycle 1
dram_channels 1
log2_dram_channels 0
dram_ranks 1
dram_banks 8
dram_rows 65536
dram_columns 128
dram_row_size 8
dram_size 4096
dram_pages 1048576

fetch_width 6
decode_width 6
exec_width 4
lq_width 2
sq_width 2
retire_width 4
scheduler_size 128
branch_mispredict_penalty 20
rob_size 256
lq_size 72
sq_size 56
num_instr_destinations_sparc 4
num_instr_destinations 2
num_instr_sources 4

itlb_set 16
itlb_way 8
itlb_rq_size 16
itlb_wq_size 16
itlb_pq_size 0
itlb_mshr_size 8
itlb_latency 1

dtlb_set 16
dtlb_way 4
dtlb_rq_size 16
dtlb_wq_size 16
dtlb_pq_size 0
dtlb_mshr_size 8
dtlb_latency 1

stlb_set 128
stlb_way 12
stlb_rq_size 32
stlb_wq_size 32
stlb_pq_size 0
stlb_mshr_size 16
stlb_latency 8

l1i_size 32
l1i_set 64
l1i_way 8
l1i_rq_size 64
l1i_wq_size 64
l1i_pq_size 8
l1i_mshr_size 8
l1i_latency 1

l1d_size 32
l1d_set 64
l1d_way 8
l1d_rq_size 64
l1d_wq_size 64
l1d_pq_size 8
l1d_mshr_size 16
l1d_latency 4

l2c_size 256
l2c_set 512
l2c_way 8
l2c_rq_size 32
l2c_wq_size 32
l2c_pq_size 32
l2c_mshr_size 32
l2c_latency 10

llc_size 2048
llc_set 2048
llc_way 16
llc_rq_size 32
llc_wq_size 32
llc_pq_size 32
llc_mshr_size 64
llc_latency 20

dram_channel_width 8
dram_wq_size 64
dram_rq_size 64
tRP 15
tRCD 15
tCAS 12.5
dram_dbus_turn_around_time 30
dram_write_high_wm 56
dram_write_low_wm 48
min_dram_writes_per_switch 16
dram_mtps 2400
dram_dbus_return_time 13


Heartbeat CPU  0 instructions:    1000001 cycles:     574571 heartbeat IPC: 1.74043 cumulative IPC: 1.74043 (Simulation time: 0 hr 0 min 1 sec) 
Heartbeat CPU  0 instructions:    2000001 cycles:    1112428 heartbeat IPC: 1.85923 cumulative IPC: 1.79787 (Simulation time: 0 hr 0 min 2 sec) 
Heartbeat CPU  0 instructions:    3000001 cycles:    1645678 heartbeat IPC: 1.87529 cumulative IPC: 1.82296 (Simulation time: 0 hr 0 min 3 sec) 
Heartbeat CPU  0 instructions:    4000000 cycles:    2182236 heartbeat IPC: 1.86373 cumulative IPC: 1.83298 (Simulation time: 0 hr 0 min 4 sec) 
Heartbeat CPU  0 instructions:    5000001 cycles:    2704612 heartbeat IPC: 1.91433 cumulative IPC: 1.84869 (Simulation time: 0 hr 0 min 5 sec) 
Heartbeat CPU  0 instructions:    6000002 cycles:    3224303 heartbeat IPC: 1.92422 cumulative IPC: 1.86087 (Simulation time: 0 hr 0 min 7 sec) 
Heartbeat CPU  0 instructions:    7000000 cycles:    3741473 heartbeat IPC: 1.93360 cumulative IPC: 1.87092 (Simulation time: 0 hr 0 min 8 sec) 
Heartbeat CPU  0 instructions:    8000000 cycles:    4244253 heartbeat IPC: 1.98894 cumulative IPC: 1.88490 (Simulation time: 0 hr 0 min 9 sec) 
Heartbeat CPU  0 instructions:    9000001 cycles:    4762883 heartbeat IPC: 1.92816 cumulative IPC: 1.88961 (Simulation time: 0 hr 0 min 10 sec) 
Heartbeat CPU  0 instructions:   10000000 cycles:    5269956 heartbeat IPC: 1.97210 cumulative IPC: 1.89755 (Simulation time: 0 hr 0 min 11 sec) 

Warmup complete CPU  0 instructions:   10000003 cycles:    5269957 (Simulation time: 0 hr 0 min 11 sec) 

Heartbeat CPU  0 instructions:   11000000 cycles:    8594629 heartbeat IPC: 0.30078 cumulative IPC: 0.30078 (Simulation time: 0 hr 0 min 13 sec) 
Heartbeat CPU  0 instructions:   12000000 cycles:    9891282 heartbeat IPC: 0.77122 cumulative IPC: 0.43278 (Simulation time: 0 hr 0 min 14 sec) 
Heartbeat CPU  0 instructions:   13000003 cycles:   11168286 heartbeat IPC: 0.78309 cumulative IPC: 0.50862 (Simulation time: 0 hr 0 min 15 sec) 
Heartbeat CPU  0 instructions:   14000000 cycles:   12419746 heartbeat IPC: 0.79906 cumulative IPC: 0.55946 (Simulation time: 0 hr 0 min 16 sec) 
Heartbeat CPU  0 instructions:   15000000 cycles:   13688784 heartbeat IPC: 0.78800 cumulative IPC: 0.59391 (Simulation time: 0 hr 0 min 18 sec) 
Heartbeat CPU  0 instructions:   16000000 cycles:   16683102 heartbeat IPC: 0.33397 cumulative IPC: 0.52571 (Simulation time: 0 hr 0 min 19 sec) 
Heartbeat CPU  0 instructions:   17000003 cycles:   19653451 heartbeat IPC: 0.33666 cumulative IPC: 0.48667 (Simulation time: 0 hr 0 min 21 sec) 
Heartbeat CPU  0 instructions:   18000002 cycles:   22568905 heartbeat IPC: 0.34300 cumulative IPC: 0.46246 (Simulation time: 0 hr 0 min 23 sec) 
Heartbeat CPU  0 instructions:   19000002 cycles:   25509972 heartbeat IPC: 0.34001 cumulative IPC: 0.44466 (Simulation time: 0 hr 0 min 24 sec) 
Heartbeat CPU  0 instructions:   20000000 cycles:   28973204 heartbeat IPC: 0.28875 cumulative IPC: 0.42188 (Simulation time: 0 hr 0 min 26 sec) 
Heartbeat CPU  0 instructions:   21000000 cycles:   32421733 heartbeat IPC: 0.28998 cumulative IPC: 0.40513 (Simulation time: 0 hr 0 min 28 sec) 
Heartbeat CPU  0 instructions:   22000001 cycles:   35720287 heartbeat IPC: 0.30316 cumulative IPC: 0.39408 (Simulation time: 0 hr 0 min 30 sec) 
Heartbeat CPU  0 instructions:   23000000 cycles:   38652551 heartbeat IPC: 0.34103 cumulative IPC: 0.38942 (Simulation time: 0 hr 0 min 31 sec) 
Heartbeat CPU  0 instructions:   24000000 cycles:   41561162 heartbeat IPC: 0.34381 cumulative IPC: 0.38577 (Simulation time: 0 hr 0 min 33 sec) 
Heartbeat CPU  0 instructions:   25000000 cycles:   44477166 heartbeat IPC: 0.34294 cumulative IPC: 0.38258 (Simulation time: 0 hr 0 min 34 sec) 
Heartbeat CPU  0 instructions:   26000002 cycles:   47371618 heartbeat IPC: 0.34549 cumulative IPC: 0.38003 (Simulation time: 0 hr 0 min 36 sec) 
Heartbeat CPU  0 instructions:   27000001 cycles:   50328823 heartbeat IPC: 0.33816 cumulative IPC: 0.37728 (Simulation time: 0 hr 0 min 38 sec) 
Heartbeat CPU  0 instructions:   28000000 cycles:   53217012 heartbeat IPC: 0.34624 cumulative IPC: 0.37541 (Simulation time: 0 hr 0 min 39 sec) 
Heartbeat CPU  0 instructions:   29000001 cycles:   56157344 heartbeat IPC: 0.34010 cumulative IPC: 0.37337 (Simulation time: 0 hr 0 min 41 sec) 
Heartbeat CPU  0 instructions:   30000000 cycles:   59067794 heartbeat IPC: 0.34359 cumulative IPC: 0.37176 (Simulation time: 0 hr 0 min 43 sec) 
Heartbeat CPU  0 instructions:   31000002 cycles:   61953163 heartbeat IPC: 0.34658 cumulative IPC: 0.37048 (Simulation time: 0 hr 0 min 44 sec) 
Heartbeat CPU  0 instructions:   32000000 cycles:   64891132 heartbeat IPC: 0.34037 cumulative IPC: 0.36900 (Simulation time: 0 hr 0 min 46 sec) 
Heartbeat CPU  0 instructions:   33000000 cycles:   68192946 heartbeat IPC: 0.30286 cumulative IPC: 0.36553 (Simulation time: 0 hr 0 min 48 sec) 
Heartbeat CPU  0 instructions:   34000001 cycles:   71629758 heartbeat IPC: 0.29097 cumulative IPC: 0.36166 (Simulation time: 0 hr 0 min 49 sec) 
Heartbeat CPU  0 instructions:   35000001 cycles:   74757765 heartbeat IPC: 0.31969 cumulative IPC: 0.35978 (Simulation time: 0 hr 0 min 51 sec) 
Heartbeat CPU  0 instructions:   36000000 cycles:   78143745 heartbeat IPC: 0.29534 cumulative IPC: 0.35678 (Simulation time: 0 hr 0 min 53 sec) 
Heartbeat CPU  0 instructions:   37000001 cycles:   81051649 heartbeat IPC: 0.34389 cumulative IPC: 0.35629 (Simulation time: 0 hr 0 min 55 sec) 
Heartbeat CPU  0 instructions:   38000001 cycles:   84369354 heartbeat IPC: 0.30141 cumulative IPC: 0.35398 (Simulation time: 0 hr 0 min 56 sec) 
Heartbeat CPU  0 instructions:   39000001 cycles:   87045926 heartbeat IPC: 0.37361 cumulative IPC: 0.35463 (Simulation time: 0 hr 0 min 58 sec) 
Heartbeat CPU  0 instructions:   40000000 cycles:   88306979 heartbeat IPC: 0.79299 cumulative IPC: 0.36128 (Simulation time: 0 hr 0 min 59 sec) 
Heartbeat CPU  0 instructions:   41000001 cycles:   89562044 heartbeat IPC: 0.79677 cumulative IPC: 0.36777 (Simulation time: 0 hr 1 min 0 sec) 
Heartbeat CPU  0 instructions:   42000001 cycles:   90826527 heartbeat IPC: 0.79084 cumulative IPC: 0.37402 (Simulation time: 0 hr 1 min 2 sec) 
Heartbeat CPU  0 instructions:   43000002 cycles:   92154360 heartbeat IPC: 0.75311 cumulative IPC: 0.37981 (Simulation time: 0 hr 1 min 3 sec) 
Heartbeat CPU  0 instructions:   44000000 cycles:   95178833 heartbeat IPC: 0.33064 cumulative IPC: 0.37816 (Simulation time: 0 hr 1 min 5 sec) 
Heartbeat CPU  0 instructions:   45000000 cycles:   98194472 heartbeat IPC: 0.33160 cumulative IPC: 0.37665 (Simulation time: 0 hr 1 min 6 sec) 
Heartbeat CPU  0 instructions:   46000000 cycles:  101689832 heartbeat IPC: 0.28609 cumulative IPC: 0.37337 (Simulation time: 0 hr 1 min 8 sec) 
Heartbeat CPU  0 instructions:   47000000 cycles:  105152704 heartbeat IPC: 0.28878 cumulative IPC: 0.37043 (Simulation time: 0 hr 1 min 10 sec) 
Heartbeat CPU  0 instructions:   48000000 cycles:  108419460 heartbeat IPC: 0.30611 cumulative IPC: 0.36840 (Simulation time: 0 hr 1 min 11 sec) 
Heartbeat CPU  0 instructions:   49000000 cycles:  111395956 heartbeat IPC: 0.33597 cumulative IPC: 0.36749 (Simulation time: 0 hr 1 min 13 sec) 
Heartbeat CPU  0 instructions:   50000001 cycles:  114302245 heartbeat IPC: 0.34408 cumulative IPC: 0.36686 (Simulation time: 0 hr 1 min 15 sec) 
Heartbeat CPU  0 instructions:   51000003 cycles:  117209455 heartbeat IPC: 0.34397 cumulative IPC: 0.36627 (Simulation time: 0 hr 1 min 16 sec) 
Heartbeat CPU  0 instructions:   52000000 cycles:  120102350 heartbeat IPC: 0.34567 cumulative IPC: 0.36575 (Simulation time: 0 hr 1 min 18 sec) 
Heartbeat CPU  0 instructions:   53000003 cycles:  123009591 heartbeat IPC: 0.34397 cumulative IPC: 0.36521 (Simulation time: 0 hr 1 min 20 sec) 
Heartbeat CPU  0 instructions:   54000001 cycles:  125887699 heartbeat IPC: 0.34745 cumulative IPC: 0.36479 (Simulation time: 0 hr 1 min 21 sec) 
Heartbeat CPU  0 instructions:   55000001 cycles:  128895168 heartbeat IPC: 0.33251 cumulative IPC: 0.36400 (Simulation time: 0 hr 1 min 23 sec) 
Heartbeat CPU  0 instructions:   56000000 cycles:  131809893 heartbeat IPC: 0.34309 cumulative IPC: 0.36352 (Simulation time: 0 hr 1 min 25 sec) 
Heartbeat CPU  0 instructions:   57000003 cycles:  134717146 heartbeat IPC: 0.34397 cumulative IPC: 0.36308 (Simulation time: 0 hr 1 min 26 sec) 
Heartbeat CPU  0 instructions:   58000001 cycles:  137842357 heartbeat IPC: 0.31998 cumulative IPC: 0.36207 (Simulation time: 0 hr 1 min 28 sec) 
Heartbeat CPU  0 instructions:   59000001 cycles:  141253432 heartbeat IPC: 0.29316 cumulative IPC: 0.36034 (Simulation time: 0 hr 1 min 30 sec) 
Heartbeat CPU  0 instructions:   60000000 cycles:  144346303 heartbeat IPC: 0.32332 cumulative IPC: 0.35951 (Simulation time: 0 hr 1 min 31 sec) 
Finished CPU 0 instructions: 50000002 cycles: 139076356 cumulative IPC: 0.35951 (Simulation time: 0 hr 1 min 31 sec) 

ChampSim completed all CPUs

[ROI Statistics]
Core_0_instructions 50000002
Core_0_cycles 139076356
Core_0_IPC 0.35951

Core_0_branch_prediction_accuracy 98.23849
Core_0_branch_MPKI 5.44690
Core_0_average_ROB_occupancy_at_mispredict 114.04661

Core_0_L1D_total_access 6875967
Core_0_L1D_total_hit 5632820
Core_0_L1D_total_miss 1243147
Core_0_L1D_loads 4529077
Core_0_L1D_load_hit 3305277
Core_0_L1D_load_miss 1223800
Core_0_L1D_RFOs 2346890
Core_0_L1D_RFO_hit 2327543
Core_0_L1D_RFO_miss 19347
Core_0_L1D_prefetches 0
Core_0_L1D_prefetch_hit 0
Core_0_L1D_prefetch_miss 0
Core_0_L1D_writebacks 0
Core_0_L1D_writeback_hit 0
Core_0_L1D_writeback_miss 0
Core_0_L1D_prefetch_requested 0
Core_0_L1D_prefetch_dropped 0
Core_0_L1D_prefetch_issued 0
Core_0_L1D_prefetch_filled 0
Core_0_L1D_prefetch_useful 0
Core_0_L1D_prefetch_useless 0
Core_0_L1D_prefetch_late 0
Core_0_L1D_average_miss_latency 203.17222

Core_0_L1D_rq_access 6005671
Core_0_L1D_rq_forward 0
Core_0_L1D_rq_merged 1264517
Core_0_L1D_rq_to_cache 4740120
Core_0_L1D_rq_full 0

Core_0_L1D_wq_access 2415879
Core_0_L1D_wq_forward 1034
Core_0_L1D_wq_merged 8410
Core_0_L1D_wq_to_cache 2407469
Core_0_L1D_wq_full 0

Core_0_L1D_pq_access 0
Core_0_L1D_pq_forward 0
Core_0_L1D_pq_merged 0
Core_0_L1D_pq_to_cache 0
Core_0_L1D_pq_full 0

Core_0_L1D_acc_epochs 72166
Core_0_L1D_acc_level_0 72166
Core_0_L1D_acc_level_1 0
Core_0_L1D_acc_level_2 0
Core_0_L1D_acc_level_3 0
Core_0_L1D_acc_level_4 0
Core_0_L1D_acc_level_5 0
Core_0_L1D_acc_level_6 0
Core_0_L1D_acc_level_7 0
Core_0_L1D_acc_level_8 0
Core_0_L1D_acc_level_9 0

Core_0_L1I_total_access 13076705
Core_0_L1I_total_hit 13040462
Core_0_L1I_total_miss 36243
Core_0_L1I_loads 13076705
Core_0_L1I_load_hit 13040462
Core_0_L1I_load_miss 36243
Core_0_L1I_RFOs 0
Core_0_L1I_RFO_hit 0
Core_0_L1I_RFO_miss 0
Core_0_L1I_prefetches 0
Core_0_L1I_prefetch_hit 0
Core_0_L1I_prefetch_miss 0
Core_0_L1I_writebacks 0
Core_0_L1I_writeback_hit 0
Core_0_L1I_writeback_miss 0
Core_0_L1I_prefetch_requested 0
Core_0_L1I_prefetch_dropped 0
Core_0_L1I_prefetch_issued 0
Core_0_L1I_prefetch_filled 0
Core_0_L1I_prefetch_useful 0
Core_0_L1I_prefetch_useless 0
Core_0_L1I_prefetch_late 0
Core_0_L1I_average_miss_latency 43.20608

Core_0_L1I_rq_access 50000003
Core_0_L1I_rq_forward 0
Core_0_L1I_rq_merged 36900073
Core_0_L1I_rq_to_cache 13099930
Core_0_L1I_rq_full 0

Core_0_L1I_wq_access 0
Core_0_L1I_wq_forward 0
Core_0_L1I_wq_merged 0
Core_0_L1I_wq_to_cache 0
Core_0_L1I_wq_full 0

Core_0_L1I_pq_access 0
Core_0_L1I_pq_forward 0
Core_0_L1I_pq_merged 0
Core_0_L1I_pq_to_cache 0
Core_0_L1I_pq_full 0

Core_0_L1I_acc_epochs 72166
Core_0_L1I_acc_level_0 72166
Core_0_L1I_acc_level_1 0
Core_0_L1I_acc_level_2 0
Core_0_L1I_acc_level_3 0
Core_0_L1I_acc_level_4 0
Core_0_L1I_acc_level_5 0
Core_0_L1I_acc_level_6 0
Core_0_L1I_acc_level_7 0
Core_0_L1I_acc_level_8 0
Core_0_L1I_acc_level_9 0

Core_0_L2C_total_access 1373326
Core_0_L2C_total_hit 107618
Core_0_L2C_total_miss 1265708
Core_0_L2C_loads 1260042
Core_0_L2C_load_hit 57799
Core_0_L2C_load_miss 1202243
Core_0_L2C_RFOs 19347
Core_0_L2C_RFO_hit 570
Core_0_L2C_RFO_miss 18777
Core_0_L2C_prefetches 53710
Core_0_L2C_prefetch_hit 9037
Core_0_L2C_prefetch_miss 44673
Core_0_L2C_writebacks 40227
Core_0_L2C_writeback_hit 40212
Core_0_L2C_writeback_miss 15
Core_0_L2C_prefetch_requested 1566457
Core_0_L2C_prefetch_dropped 0
Core_0_L2C_prefetch_issued 1566457
Core_0_L2C_prefetch_filled 52760
Core_0_L2C_prefetch_useful 46825
Core_0_L2C_prefetch_useless 5924
Core_0_L2C_prefetch_late 8396
Core_0_L2C_average_miss_latency 126.15792

Core_0_L2C_rq_access 1279389
Core_0_L2C_rq_forward 0
Core_0_L2C_rq_merged 0
Core_0_L2C_rq_to_cache 1279388
Core_0_L2C_rq_full 0

Core_0_L2C_wq_access 40227
Core_0_L2C_wq_forward 1
Core_0_L2C_wq_merged 0
Core_0_L2C_wq_to_cache 40227
Core_0_L2C_wq_full 0

Core_0_L2C_pq_access 1566457
Core_0_L2C_pq_forward 0
Core_0_L2C_pq_merged 157021
Core_0_L2C_pq_to_cache 1409436
Core_0_L2C_pq_full 0

Core_0_L2C_acc_epochs 72166
Core_0_L2C_acc_level_0 57223
Core_0_L2C_acc_level_1 1698
Core_0_L2C_acc_level_2 1419
Core_0_L2C_acc_level_3 1358
Core_0_L2C_acc_level_4 1265
Core_0_L2C_acc_level_5 1454
Core_0_L2C_acc_level_6 1285
Core_0_L2C_acc_level_7 1642
Core_0_L2C_acc_level_8 1715
Core_0_L2C_acc_level_9 3107

Core_0_LLC_total_access 2376796
Core_0_LLC_total_hit 1616624
Core_0_LLC_total_miss 760172
Core_0_LLC_loads 1193850
Core_0_LLC_load_hit 911721
Core_0_LLC_load_miss 282129
Core_0_LLC_RFOs 18777
Core_0_LLC_RFO_hit 6948
Core_0_LLC_RFO_miss 11829
Core_0_LLC_prefetches 1125218
Core_0_LLC_prefetch_hit 667801
Core_0_LLC_prefetch_miss 457417
Core_0_LLC_writebacks 38951
Core_0_LLC_writeback_hit 30154
Core_0_LLC_writeback_miss 8797
Core_0_LLC_prefetch_requested 0
Core_0_LLC_prefetch_dropped 0
Core_0_LLC_prefetch_issued 0
Core_0_LLC_prefetch_filled 551857
Core_0_LLC_prefetch_useful 23399
Core_0_LLC_prefetch_useless 521776
Core_0_LLC_prefetch_late 4747
Core_0_LLC_average_miss_latency 152.49047

Core_0_LLC_rq_access 1212626
Core_0_LLC_rq_forward 0
Core_0_LLC_rq_merged 0
Core_0_LLC_rq_to_cache 1212626
Core_0_LLC_rq_full 0

Core_0_LLC_wq_access 38951
Core_0_LLC_wq_forward 0
Core_0_LLC_wq_merged 0
Core_0_LLC_wq_to_cache 38951
Core_0_LLC_wq_full 0

Core_0_LLC_pq_access 1364856
Core_0_LLC_pq_forward 0
Core_0_LLC_pq_merged 13598
Core_0_LLC_pq_to_cache 1351258
Core_0_LLC_pq_full 0

Core_0_LLC_acc_epochs 140964
Core_0_LLC_acc_level_0 132910
Core_0_LLC_acc_level_1 4145
Core_0_LLC_acc_level_2 1714
Core_0_LLC_acc_level_3 422
Core_0_LLC_acc_level_4 124
Core_0_LLC_acc_level_5 927
Core_0_LLC_acc_level_6 369
Core_0_LLC_acc_level_7 222
Core_0_LLC_acc_level_8 69
Core_0_LLC_acc_level_9 62

Core_0_major_page_fault 0
Core_0_minor_page_fault 15893

spp.pref.total 1566457
spp.pref.at_L2 82125
spp.pref.at_LLC 1484332

spp.depth.max 10
spp.depth.min 0
spp.depth.avg 1

spp.breadth.max 2
spp.breadth.min 0
spp.breadth.avg 0

delta_1 1572630
delta_-1 8375
delta_-33 5673
delta_2 4569
delta_-3 3050
delta_-2 2543
delta_21 2182
delta_7 1995
delta_6 1470
delta_18 1360
delta_-50 1308
delta_-32 998
delta_-7 954
delta_3 919
delta_-4 782
delta_-24 582
delta_-9 522
delta_-5 478
delta_-27 461
delta_-6 451
delta_30 372
delta_4 334
delta_19 271
delta_-8 270
delta_16 263
delta_-20 253
delta_12 236
delta_17 232
delta_-14 203
delta_31 189
delta_-10 178
delta_46 162
delta_-13 154
delta_-48 150
delta_-18 127
delta_9 126
delta_23 113
delta_15 113
delta_13 112
delta_-16 110
delta_-38 104
delta_-36 89
delta_5 81
delta_44 79
delta_10 71
delta_-19 68
delta_28 65
delta_-22 64
delta_29 60
delta_36 59
delta_-21 58
delta_-11 56
delta_-12 55
delta_27 47
delta_20 45
delta_8 45
delta_-17 36
delta_58 36
delta_-61 36
delta_24 34
delta_11 23
delta_41 22
delta_39 17
delta_-28 16
delta_-45 14
delta_-35 12
delta_45 8
delta_43 8
delta_48 7
delta_14 7
delta_-44 7
delta_-41 5
delta_-30 5
delta_22 1
delta_-15 1

depth_1_delta_1 980296
depth_1_delta_-1 8177
depth_1_delta_-33 5673
depth_1_delta_2 4393
depth_1_delta_-3 2996
depth_1_delta_-2 2383
depth_1_delta_21 2164
depth_1_delta_7 1883
depth_1_delta_6 1465
depth_1_delta_18 1359
depth_1_delta_-50 1308
depth_1_delta_-32 998
depth_1_delta_-7 941
depth_1_delta_3 854
depth_1_delta_-4 752
depth_1_delta_-24 582
depth_1_delta_-9 522
depth_1_delta_-5 464
depth_1_delta_-6 448
depth_1_delta_30 343
depth_1_delta_4 334
depth_1_delta_-27 293
depth_1_delta_19 267
depth_1_delta_16 262
depth_1_delta_-8 260
depth_1_delta_-20 253
depth_1_delta_12 236
depth_1_delta_17 232
depth_1_delta_-14 199
depth_1_delta_-10 178
depth_1_delta_46 162
depth_1_delta_31 158
depth_1_delta_-13 154
depth_1_delta_-48 148
depth_1_delta_-18 127
depth_1_delta_9 126
depth_1_delta_23 111
depth_1_delta_-16 107
depth_1_delta_13 104
depth_1_delta_-36 89
depth_1_delta_15 83
depth_1_delta_5 81
depth_1_delta_44 79
depth_1_delta_10 71
depth_1_delta_-19 65
depth_1_delta_28 65
depth_1_delta_29 60
depth_1_delta_36 59
depth_1_delta_-11 56
depth_1_delta_-21 55
depth_1_delta_-12 53
depth_1_delta_-22 49
depth_1_delta_27 47
depth_1_delta_8 45
depth_1_delta_20 43
depth_1_delta_-38 39
depth_1_delta_58 36
depth_1_delta_-17 35
depth_1_delta_-61 35
depth_1_delta_24 34
depth_1_delta_11 23
depth_1_delta_41 22
depth_1_delta_39 17
depth_1_delta_-28 16
depth_1_delta_-45 14
depth_1_delta_-35 12
depth_1_delta_45 8
depth_1_delta_43 8
depth_1_delta_-44 7
depth_1_delta_48 7
depth_1_delta_14 7
depth_1_delta_-41 5
depth_1_delta_-30 5
depth_1_delta_22 1
depth_1_delta_-15 1
depth_2_delta_1 231564
depth_2_delta_2 171
depth_2_delta_-27 168
depth_2_delta_-2 157
depth_2_delta_-1 144
depth_2_delta_7 112
depth_2_delta_-38 65
depth_2_delta_3 65
depth_2_delta_-3 53
depth_2_delta_31 31
depth_2_delta_15 30
depth_2_delta_-4 30
depth_2_delta_30 29
depth_2_delta_21 18
depth_2_delta_-22 15
depth_2_delta_-5 14
depth_2_delta_-7 13
depth_2_delta_-8 10
depth_2_delta_13 8
depth_2_delta_6 5
depth_2_delta_-14 4
depth_2_delta_19 4
depth_2_delta_-6 3
depth_2_delta_-16 3
depth_2_delta_-19 3
depth_2_delta_-21 3
depth_2_delta_-48 2
depth_2_delta_23 2
depth_2_delta_-12 2
depth_2_delta_20 2
depth_2_delta_16 1
depth_2_delta_-17 1
depth_2_delta_-61 1
depth_2_delta_18 1
depth_3_delta_1 158019
depth_3_delta_-1 42
depth_3_delta_2 5
depth_3_delta_-2 2
depth_3_delta_-3 1
depth_4_delta_1 86607
depth_4_delta_-1 12
depth_4_delta_-2 1
depth_5_delta_1 45724
depth_6_delta_1 29565
depth_7_delta_1 20003
depth_8_delta_1 12595
depth_9_delta_1 6668
depth_10_delta_1 1589

Channel_0_RQ_row_buffer_hit 396324
Channel_0_RQ_row_buffer_miss 355033
Channel_0_WQ_row_buffer_hit 4674
Channel_0_WQ_row_buffer_miss 27250
Channel_0_WQ_full 0
Channel_0_dbus_congested 298698

avg_congested_cycle 9

DRAM_bw_pochs 563853
DRAM_bw_level_0 451095
DRAM_bw_level_1 90056
DRAM_bw_level_2 19656
DRAM_bw_level_3 3046
