*************************************************
   ChampSim Multicore Out-of-Order Simulator
   Last compiled: Apr  3 2025 20:54:34
*************************************************
parsing config file: /home/zir/Pythia/config/pythia.ini

trace_0 /home/zir/ChampSim/ML-DPC/ChampSimTraces/spec17/605.mcf-s4.trace.xz
adding L2C_PREFETCHER: Scooby
Initialize SHIP state
warmup_instructions 10000000
simulation_instructions 50000000
champsim_seed 167
measure_ipc 0
measure_ipc_epoch 1000
measure_dram_bw 1
measure_dram_bw_epoch 256
measure_cache_acc 1
measure_cache_acc_epoch 1024
l1d_perfect 0
l2c_perfect 0
llc_perfect 0
l1d_semi_perfect 0
l2c_semi_perfect 0
llc_semi_perfect 0
semi_perfect_cache_page_buffer_size 64

num_cpus 1
cpu_freq 4000
dram_io_freq 2400
page_size 4096
block_size 64
max_read_per_cycle 8
max_fill_per_cycle 1
dram_channels 1
log2_dram_channels 0
dram_ranks 1
dram_banks 8
dram_rows 65536
dram_columns 128
dram_row_size 8
dram_size 4096
dram_pages 1048576

fetch_width 6
decode_width 6
exec_width 4
lq_width 2
sq_width 2
retire_width 4
scheduler_size 128
branch_mispredict_penalty 20
rob_size 256
lq_size 72
sq_size 56
num_instr_destinations_sparc 4
num_instr_destinations 2
num_instr_sources 4

itlb_set 16
itlb_way 8
itlb_rq_size 16
itlb_wq_size 16
itlb_pq_size 0
itlb_mshr_size 8
itlb_latency 1

dtlb_set 16
dtlb_way 4
dtlb_rq_size 16
dtlb_wq_size 16
dtlb_pq_size 0
dtlb_mshr_size 8
dtlb_latency 1

stlb_set 128
stlb_way 12
stlb_rq_size 32
stlb_wq_size 32
stlb_pq_size 0
stlb_mshr_size 16
stlb_latency 8

l1i_size 32
l1i_set 64
l1i_way 8
l1i_rq_size 64
l1i_wq_size 64
l1i_pq_size 8
l1i_mshr_size 8
l1i_latency 1

l1d_size 32
l1d_set 64
l1d_way 8
l1d_rq_size 64
l1d_wq_size 64
l1d_pq_size 8
l1d_mshr_size 16
l1d_latency 4

l2c_size 256
l2c_set 512
l2c_way 8
l2c_rq_size 32
l2c_wq_size 32
l2c_pq_size 32
l2c_mshr_size 32
l2c_latency 10

llc_size 2048
llc_set 2048
llc_way 16
llc_rq_size 32
llc_wq_size 32
llc_pq_size 32
llc_mshr_size 64
llc_latency 20

dram_channel_width 8
dram_wq_size 64
dram_rq_size 64
tRP 15
tRCD 15
tCAS 12.5
dram_dbus_turn_around_time 30
dram_write_high_wm 56
dram_write_low_wm 48
min_dram_writes_per_switch 16
dram_mtps 2400
dram_dbus_return_time 13

scooby_alpha 0.0065088
scooby_gamma 0.556301
scooby_epsilon 0.00182284
scooby_state_num_bits 10
scooby_max_states 1024
scooby_seed 200
scooby_policy EGreedy
scooby_learning_type SARSA
scooby_actions 1,3,4,5,10,11,12,22,23,30,32,-1,-3,-6,0,
scooby_max_actions 15
scooby_pt_size 256
scooby_st_size 64
scooby_max_pcs 5
scooby_max_offsets 5
scooby_max_deltas 5
scooby_reward_none -4
scooby_reward_incorrect -8
scooby_reward_correct_untimely 12
scooby_reward_correct_timely 20
scooby_brain_zero_init 0
scooby_enable_reward_all 0
scooby_enable_track_multiple 0
scooby_enable_reward_out_of_bounds 1
scooby_reward_out_of_bounds -12
scooby_state_type 1
scooby_state_hash_type 11
scooby_access_debug 0
scooby_print_access_debug 0
scooby_print_access_debug_pc deadbeef
scooby_print_access_debug_pc_count 0
scooby_print_trace 0
scooby_enable_state_action_stats 1
scooby_enable_reward_tracker_hit 0
scooby_reward_tracker_hit -2
scooby_enable_featurewise_engine 1
scooby_pref_degree 1
scooby_enable_dyn_degree 1
scooby_max_to_avg_q_thresholds 0.5,1,2,
scooby_dyn_degrees 1,2,4,4,
scooby_multi_deg_select_type 2
scooby_last_pref_offset_conf_thresholds 1,3,8,
scooby_dyn_degrees_type2 1,2,4,6,
scooby_action_tracker_size 2
scooby_high_bw_thresh 4
scooby_enable_hbw_reward 1
scooby_reward_hbw_correct_timely 20
scooby_reward_hbw_correct_untimely 12
scooby_reward_hbw_incorrect -14
scooby_reward_hbw_none -2
scooby_reward_hbw_out_of_bounds -12
scooby_reward_hbw_tracker_hit -2
scooby_last_pref_offset_conf_thresholds_hbw 1,3,8,
scooby_dyn_degrees_type2_hbw 1,2,4,6,

le_enable_trace 0
le_trace_interval 0
le_trace_file_name 
le_trace_state 0
le_enable_score_plot 0
le_plot_file_name 
le_plot_actions 
le_enable_action_trace 0
le_action_trace_interval 0
le_action_trace_name 
le_enable_action_plot 0

le_featurewise_active_features PC, PC_Delta
le_featurewise_num_tilings 3,3,
le_featurewise_num_tiles 128,128,
le_featurewise_hash_types 2,2,
le_featurewise_enable_tiling_offset 1,1,
le_featurewise_max_q_thresh 0.5
le_featurewise_enable_action_fallback 1
le_featurewise_feature_weights 1,1,
le_featurewise_enable_dynamic_weight 0
le_featurewise_weight_gradient 0.001
le_featurewise_disable_adjust_weight_all_features_align 1
le_featurewise_selective_update 0
le_featurewise_pooling_type 2
le_featurewise_enable_dyn_action_fallback 1
le_featurewise_bw_acc_check_level 1
le_featurewise_acc_thresh 2
le_featurewise_enable_trace 0
le_featurewise_trace_feature_type 0
le_featurewise_trace_feature 
le_featurewise_trace_interval 0
le_featurewise_trace_record_count 0
le_featurewise_trace_file_name 
le_featurewise_enable_score_plot 0
le_featurewise_plot_actions 
le_featurewise_plot_file_name 


Heartbeat CPU  0 instructions:    1000000 cycles:     557923 heartbeat IPC: 1.79236 cumulative IPC: 1.79236 (Simulation time: 0 hr 0 min 2 sec) 
Heartbeat CPU  0 instructions:    2000003 cycles:    1127651 heartbeat IPC: 1.75523 cumulative IPC: 1.77360 (Simulation time: 0 hr 0 min 4 sec) 
Heartbeat CPU  0 instructions:    3000001 cycles:    1682631 heartbeat IPC: 1.80186 cumulative IPC: 1.78292 (Simulation time: 0 hr 0 min 6 sec) 
Heartbeat CPU  0 instructions:    4000000 cycles:    2256763 heartbeat IPC: 1.74176 cumulative IPC: 1.77245 (Simulation time: 0 hr 0 min 8 sec) 
Heartbeat CPU  0 instructions:    5000002 cycles:    2811931 heartbeat IPC: 1.80126 cumulative IPC: 1.77814 (Simulation time: 0 hr 0 min 11 sec) 
Heartbeat CPU  0 instructions:    6000001 cycles:    3366532 heartbeat IPC: 1.80310 cumulative IPC: 1.78225 (Simulation time: 0 hr 0 min 12 sec) 
Heartbeat CPU  0 instructions:    7000001 cycles:    3933301 heartbeat IPC: 1.76439 cumulative IPC: 1.77968 (Simulation time: 0 hr 0 min 15 sec) 
Heartbeat CPU  0 instructions:    8000000 cycles:    4494695 heartbeat IPC: 1.78128 cumulative IPC: 1.77988 (Simulation time: 0 hr 0 min 17 sec) 
Heartbeat CPU  0 instructions:    9000002 cycles:    5070987 heartbeat IPC: 1.73523 cumulative IPC: 1.77480 (Simulation time: 0 hr 0 min 19 sec) 
Heartbeat CPU  0 instructions:   10000000 cycles:    5630939 heartbeat IPC: 1.78586 cumulative IPC: 1.77590 (Simulation time: 0 hr 0 min 21 sec) 

Warmup complete CPU  0 instructions:   10000004 cycles:    5630944 (Simulation time: 0 hr 0 min 21 sec) 

Heartbeat CPU  0 instructions:   11000003 cycles:    7721346 heartbeat IPC: 0.47838 cumulative IPC: 0.47838 (Simulation time: 0 hr 0 min 24 sec) 
Heartbeat CPU  0 instructions:   12000000 cycles:   11784647 heartbeat IPC: 0.24610 cumulative IPC: 0.32501 (Simulation time: 0 hr 0 min 29 sec) 
Heartbeat CPU  0 instructions:   13000001 cycles:   13742670 heartbeat IPC: 0.51072 cumulative IPC: 0.36983 (Simulation time: 0 hr 0 min 31 sec) 
Heartbeat CPU  0 instructions:   14000001 cycles:   16855114 heartbeat IPC: 0.32129 cumulative IPC: 0.35637 (Simulation time: 0 hr 0 min 35 sec) 
Heartbeat CPU  0 instructions:   15000003 cycles:   20321035 heartbeat IPC: 0.28852 cumulative IPC: 0.34037 (Simulation time: 0 hr 0 min 39 sec) 
Heartbeat CPU  0 instructions:   16000000 cycles:   22575753 heartbeat IPC: 0.44351 cumulative IPC: 0.35409 (Simulation time: 0 hr 0 min 42 sec) 
Heartbeat CPU  0 instructions:   17000001 cycles:   26116163 heartbeat IPC: 0.28245 cumulative IPC: 0.34171 (Simulation time: 0 hr 0 min 46 sec) 
Heartbeat CPU  0 instructions:   18000000 cycles:   30810101 heartbeat IPC: 0.21304 cumulative IPC: 0.31772 (Simulation time: 0 hr 0 min 51 sec) 
Heartbeat CPU  0 instructions:   19000000 cycles:   35082450 heartbeat IPC: 0.23406 cumulative IPC: 0.30559 (Simulation time: 0 hr 0 min 56 sec) 
Heartbeat CPU  0 instructions:   20000000 cycles:   36865320 heartbeat IPC: 0.56089 cumulative IPC: 0.32016 (Simulation time: 0 hr 0 min 59 sec) 
Heartbeat CPU  0 instructions:   21000001 cycles:   39276274 heartbeat IPC: 0.41477 cumulative IPC: 0.32694 (Simulation time: 0 hr 1 min 2 sec) 
Heartbeat CPU  0 instructions:   22000003 cycles:   42791021 heartbeat IPC: 0.28452 cumulative IPC: 0.32293 (Simulation time: 0 hr 1 min 6 sec) 
Heartbeat CPU  0 instructions:   23000001 cycles:   47190861 heartbeat IPC: 0.22728 cumulative IPC: 0.31280 (Simulation time: 0 hr 1 min 11 sec) 
Heartbeat CPU  0 instructions:   24000000 cycles:   51760684 heartbeat IPC: 0.21883 cumulative IPC: 0.30349 (Simulation time: 0 hr 1 min 16 sec) 
Heartbeat CPU  0 instructions:   25000000 cycles:   56421800 heartbeat IPC: 0.21454 cumulative IPC: 0.29533 (Simulation time: 0 hr 1 min 22 sec) 
Heartbeat CPU  0 instructions:   26000003 cycles:   61022654 heartbeat IPC: 0.21735 cumulative IPC: 0.28885 (Simulation time: 0 hr 1 min 27 sec) 
Heartbeat CPU  0 instructions:   27000000 cycles:   65709201 heartbeat IPC: 0.21338 cumulative IPC: 0.28296 (Simulation time: 0 hr 1 min 32 sec) 
Heartbeat CPU  0 instructions:   28000000 cycles:   67859466 heartbeat IPC: 0.46506 cumulative IPC: 0.28926 (Simulation time: 0 hr 1 min 35 sec) 
Heartbeat CPU  0 instructions:   29000000 cycles:   69592913 heartbeat IPC: 0.57689 cumulative IPC: 0.29705 (Simulation time: 0 hr 1 min 38 sec) 
Heartbeat CPU  0 instructions:   30000002 cycles:   72122752 heartbeat IPC: 0.39528 cumulative IPC: 0.30079 (Simulation time: 0 hr 1 min 41 sec) 
Heartbeat CPU  0 instructions:   31000002 cycles:   74371921 heartbeat IPC: 0.44461 cumulative IPC: 0.30549 (Simulation time: 0 hr 1 min 44 sec) 
Heartbeat CPU  0 instructions:   32000000 cycles:   76316283 heartbeat IPC: 0.51431 cumulative IPC: 0.31124 (Simulation time: 0 hr 1 min 46 sec) 
Heartbeat CPU  0 instructions:   33000001 cycles:   79362552 heartbeat IPC: 0.32827 cumulative IPC: 0.31194 (Simulation time: 0 hr 1 min 50 sec) 
Heartbeat CPU  0 instructions:   34000003 cycles:   81788936 heartbeat IPC: 0.41214 cumulative IPC: 0.31513 (Simulation time: 0 hr 1 min 53 sec) 
Heartbeat CPU  0 instructions:   35000000 cycles:   84000609 heartbeat IPC: 0.45215 cumulative IPC: 0.31900 (Simulation time: 0 hr 1 min 55 sec) 
Heartbeat CPU  0 instructions:   36000000 cycles:   86843240 heartbeat IPC: 0.35179 cumulative IPC: 0.32015 (Simulation time: 0 hr 1 min 59 sec) 
Heartbeat CPU  0 instructions:   37000000 cycles:   88595466 heartbeat IPC: 0.57070 cumulative IPC: 0.32544 (Simulation time: 0 hr 2 min 1 sec) 
Heartbeat CPU  0 instructions:   38000003 cycles:   91104027 heartbeat IPC: 0.39864 cumulative IPC: 0.32759 (Simulation time: 0 hr 2 min 5 sec) 
Heartbeat CPU  0 instructions:   39000003 cycles:   94646399 heartbeat IPC: 0.28230 cumulative IPC: 0.32579 (Simulation time: 0 hr 2 min 9 sec) 
Heartbeat CPU  0 instructions:   40000000 cycles:   96842687 heartbeat IPC: 0.45531 cumulative IPC: 0.32890 (Simulation time: 0 hr 2 min 12 sec) 
Heartbeat CPU  0 instructions:   41000001 cycles:   99174302 heartbeat IPC: 0.42889 cumulative IPC: 0.33140 (Simulation time: 0 hr 2 min 14 sec) 
Heartbeat CPU  0 instructions:   42000002 cycles:  102021200 heartbeat IPC: 0.35126 cumulative IPC: 0.33198 (Simulation time: 0 hr 2 min 18 sec) 
Heartbeat CPU  0 instructions:   43000003 cycles:  103789379 heartbeat IPC: 0.56555 cumulative IPC: 0.33619 (Simulation time: 0 hr 2 min 20 sec) 
Heartbeat CPU  0 instructions:   44000000 cycles:  106661728 heartbeat IPC: 0.34815 cumulative IPC: 0.33653 (Simulation time: 0 hr 2 min 24 sec) 
Heartbeat CPU  0 instructions:   45000001 cycles:  108388220 heartbeat IPC: 0.57921 cumulative IPC: 0.34061 (Simulation time: 0 hr 2 min 26 sec) 
Heartbeat CPU  0 instructions:   46000001 cycles:  111264885 heartbeat IPC: 0.34762 cumulative IPC: 0.34080 (Simulation time: 0 hr 2 min 30 sec) 
Heartbeat CPU  0 instructions:   47000001 cycles:  113588022 heartbeat IPC: 0.43045 cumulative IPC: 0.34273 (Simulation time: 0 hr 2 min 33 sec) 
Heartbeat CPU  0 instructions:   48000000 cycles:  115349788 heartbeat IPC: 0.56761 cumulative IPC: 0.34634 (Simulation time: 0 hr 2 min 35 sec) 
Heartbeat CPU  0 instructions:   49000000 cycles:  118203053 heartbeat IPC: 0.35048 cumulative IPC: 0.34644 (Simulation time: 0 hr 2 min 39 sec) 
Heartbeat CPU  0 instructions:   50000000 cycles:  122630156 heartbeat IPC: 0.22588 cumulative IPC: 0.34188 (Simulation time: 0 hr 2 min 44 sec) 
Heartbeat CPU  0 instructions:   51000001 cycles:  124535569 heartbeat IPC: 0.52482 cumulative IPC: 0.34481 (Simulation time: 0 hr 2 min 46 sec) 
Heartbeat CPU  0 instructions:   52000000 cycles:  126312589 heartbeat IPC: 0.56274 cumulative IPC: 0.34802 (Simulation time: 0 hr 2 min 49 sec) 
Heartbeat CPU  0 instructions:   53000003 cycles:  129165645 heartbeat IPC: 0.35050 cumulative IPC: 0.34808 (Simulation time: 0 hr 2 min 52 sec) 
Heartbeat CPU  0 instructions:   54000001 cycles:  130908488 heartbeat IPC: 0.57377 cumulative IPC: 0.35122 (Simulation time: 0 hr 2 min 55 sec) 
Heartbeat CPU  0 instructions:   55000003 cycles:  132756473 heartbeat IPC: 0.54113 cumulative IPC: 0.35398 (Simulation time: 0 hr 2 min 57 sec) 
Heartbeat CPU  0 instructions:   56000000 cycles:  136605083 heartbeat IPC: 0.25983 cumulative IPC: 0.35121 (Simulation time: 0 hr 3 min 2 sec) 
Heartbeat CPU  0 instructions:   57000003 cycles:  140194965 heartbeat IPC: 0.27856 cumulative IPC: 0.34928 (Simulation time: 0 hr 3 min 6 sec) 
Heartbeat CPU  0 instructions:   58000000 cycles:  142047898 heartbeat IPC: 0.53968 cumulative IPC: 0.35186 (Simulation time: 0 hr 3 min 9 sec) 
Heartbeat CPU  0 instructions:   59000003 cycles:  145342205 heartbeat IPC: 0.30355 cumulative IPC: 0.35072 (Simulation time: 0 hr 3 min 12 sec) 
Heartbeat CPU  0 instructions:   60000000 cycles:  148746627 heartbeat IPC: 0.29373 cumulative IPC: 0.34937 (Simulation time: 0 hr 3 min 16 sec) 
Finished CPU 0 instructions: 50000002 cycles: 143115702 cumulative IPC: 0.34937 (Simulation time: 0 hr 3 min 16 sec) 

ChampSim completed all CPUs

[ROI Statistics]
Core_0_instructions 50000002
Core_0_cycles 143115702
Core_0_IPC 0.34937

Core_0_branch_prediction_accuracy 98.57503
Core_0_branch_MPKI 1.68942
Core_0_average_ROB_occupancy_at_mispredict 170.37682

Core_0_L1D_total_access 23018734
Core_0_L1D_total_hit 20162412
Core_0_L1D_total_miss 2856322
Core_0_L1D_loads 11774736
Core_0_L1D_load_hit 9054151
Core_0_L1D_load_miss 2720585
Core_0_L1D_RFOs 11243998
Core_0_L1D_RFO_hit 11108261
Core_0_L1D_RFO_miss 135737
Core_0_L1D_prefetches 0
Core_0_L1D_prefetch_hit 0
Core_0_L1D_prefetch_miss 0
Core_0_L1D_writebacks 0
Core_0_L1D_writeback_hit 0
Core_0_L1D_writeback_miss 0
Core_0_L1D_prefetch_requested 0
Core_0_L1D_prefetch_dropped 0
Core_0_L1D_prefetch_issued 0
Core_0_L1D_prefetch_filled 0
Core_0_L1D_prefetch_useful 0
Core_0_L1D_prefetch_useless 0
Core_0_L1D_prefetch_late 0
Core_0_L1D_average_miss_latency 105.97022

Core_0_L1D_rq_access 17023331
Core_0_L1D_rq_forward 0
Core_0_L1D_rq_merged 5035130
Core_0_L1D_rq_to_cache 11988201
Core_0_L1D_rq_full 0

Core_0_L1D_wq_access 11892811
Core_0_L1D_wq_forward 0
Core_0_L1D_wq_merged 239507
Core_0_L1D_wq_to_cache 11653304
Core_0_L1D_wq_full 0

Core_0_L1D_pq_access 0
Core_0_L1D_pq_forward 0
Core_0_L1D_pq_merged 0
Core_0_L1D_pq_to_cache 0
Core_0_L1D_pq_full 0

Core_0_L1D_acc_epochs 138054
Core_0_L1D_acc_level_0 138054
Core_0_L1D_acc_level_1 0
Core_0_L1D_acc_level_2 0
Core_0_L1D_acc_level_3 0
Core_0_L1D_acc_level_4 0
Core_0_L1D_acc_level_5 0
Core_0_L1D_acc_level_6 0
Core_0_L1D_acc_level_7 0
Core_0_L1D_acc_level_8 0
Core_0_L1D_acc_level_9 0

Core_0_L1I_total_access 15962758
Core_0_L1I_total_hit 15962758
Core_0_L1I_total_miss 0
Core_0_L1I_loads 15962758
Core_0_L1I_load_hit 15962758
Core_0_L1I_load_miss 0
Core_0_L1I_RFOs 0
Core_0_L1I_RFO_hit 0
Core_0_L1I_RFO_miss 0
Core_0_L1I_prefetches 0
Core_0_L1I_prefetch_hit 0
Core_0_L1I_prefetch_miss 0
Core_0_L1I_writebacks 0
Core_0_L1I_writeback_hit 0
Core_0_L1I_writeback_miss 0
Core_0_L1I_prefetch_requested 0
Core_0_L1I_prefetch_dropped 0
Core_0_L1I_prefetch_issued 0
Core_0_L1I_prefetch_filled 0
Core_0_L1I_prefetch_useful 0
Core_0_L1I_prefetch_useless 0
Core_0_L1I_prefetch_late 0
Core_0_L1I_average_miss_latency -nan

Core_0_L1I_rq_access 50000001
Core_0_L1I_rq_forward 0
Core_0_L1I_rq_merged 34037243
Core_0_L1I_rq_to_cache 15962758
Core_0_L1I_rq_full 0

Core_0_L1I_wq_access 0
Core_0_L1I_wq_forward 0
Core_0_L1I_wq_merged 0
Core_0_L1I_wq_to_cache 0
Core_0_L1I_wq_full 0

Core_0_L1I_pq_access 0
Core_0_L1I_pq_forward 0
Core_0_L1I_pq_merged 0
Core_0_L1I_pq_to_cache 0
Core_0_L1I_pq_full 0

Core_0_L1I_acc_epochs 138054
Core_0_L1I_acc_level_0 138054
Core_0_L1I_acc_level_1 0
Core_0_L1I_acc_level_2 0
Core_0_L1I_acc_level_3 0
Core_0_L1I_acc_level_4 0
Core_0_L1I_acc_level_5 0
Core_0_L1I_acc_level_6 0
Core_0_L1I_acc_level_7 0
Core_0_L1I_acc_level_8 0
Core_0_L1I_acc_level_9 0

Core_0_L2C_total_access 8811039
Core_0_L2C_total_hit 4651677
Core_0_L2C_total_miss 4159362
Core_0_L2C_loads 2720575
Core_0_L2C_load_hit 1490620
Core_0_L2C_load_miss 1229955
Core_0_L2C_RFOs 135723
Core_0_L2C_RFO_hit 14051
Core_0_L2C_RFO_miss 121672
Core_0_L2C_prefetches 5641626
Core_0_L2C_prefetch_hit 2835973
Core_0_L2C_prefetch_miss 2805653
Core_0_L2C_writebacks 313115
Core_0_L2C_writeback_hit 311033
Core_0_L2C_writeback_miss 2082
Core_0_L2C_prefetch_requested 9025466
Core_0_L2C_prefetch_dropped 20574
Core_0_L2C_prefetch_issued 9004892
Core_0_L2C_prefetch_filled 3111808
Core_0_L2C_prefetch_useful 1583629
Core_0_L2C_prefetch_useless 1526748
Core_0_L2C_prefetch_late 274971
Core_0_L2C_average_miss_latency 197.52400

Core_0_L2C_rq_access 2856323
Core_0_L2C_rq_forward 0
Core_0_L2C_rq_merged 0
Core_0_L2C_rq_to_cache 2856299
Core_0_L2C_rq_full 0

Core_0_L2C_wq_access 313115
Core_0_L2C_wq_forward 28
Core_0_L2C_wq_merged 0
Core_0_L2C_wq_to_cache 313115
Core_0_L2C_wq_full 0

Core_0_L2C_pq_access 9004892
Core_0_L2C_pq_forward 0
Core_0_L2C_pq_merged 542259
Core_0_L2C_pq_to_cache 8462629
Core_0_L2C_pq_full 0

Core_0_L2C_acc_epochs 138054
Core_0_L2C_acc_level_0 25
Core_0_L2C_acc_level_1 655
Core_0_L2C_acc_level_2 3368
Core_0_L2C_acc_level_3 6998
Core_0_L2C_acc_level_4 42182
Core_0_L2C_acc_level_5 35212
Core_0_L2C_acc_level_6 15477
Core_0_L2C_acc_level_7 10078
Core_0_L2C_acc_level_8 6734
Core_0_L2C_acc_level_9 17325

Core_0_LLC_total_access 4420099
Core_0_LLC_total_hit 564791
Core_0_LLC_total_miss 3855308
Core_0_LLC_loads 958572
Core_0_LLC_load_hit 102305
Core_0_LLC_load_miss 856267
Core_0_LLC_RFOs 120672
Core_0_LLC_RFO_hit 352
Core_0_LLC_RFO_miss 120320
Core_0_LLC_prefetches 3078036
Core_0_LLC_prefetch_hit 353162
Core_0_LLC_prefetch_miss 2724874
Core_0_LLC_writebacks 262819
Core_0_LLC_writeback_hit 108972
Core_0_LLC_writeback_miss 153847
Core_0_LLC_prefetch_requested 0
Core_0_LLC_prefetch_dropped 0
Core_0_LLC_prefetch_issued 0
Core_0_LLC_prefetch_filled 3008477
Core_0_LLC_prefetch_useful 4314
Core_0_LLC_prefetch_useless 2988759
Core_0_LLC_prefetch_late 0
Core_0_LLC_average_miss_latency 185.62864

Core_0_LLC_rq_access 1079245
Core_0_LLC_rq_forward 0
Core_0_LLC_rq_merged 0
Core_0_LLC_rq_to_cache 1079245
Core_0_LLC_rq_full 0

Core_0_LLC_wq_access 262819
Core_0_LLC_wq_forward 0
Core_0_LLC_wq_merged 0
Core_0_LLC_wq_to_cache 262819
Core_0_LLC_wq_full 0

Core_0_LLC_pq_access 3386779
Core_0_LLC_pq_forward 0
Core_0_LLC_pq_merged 0
Core_0_LLC_pq_to_cache 3386779
Core_0_LLC_pq_full 0

Core_0_LLC_acc_epochs 145261
Core_0_LLC_acc_level_0 143629
Core_0_LLC_acc_level_1 665
Core_0_LLC_acc_level_2 320
Core_0_LLC_acc_level_3 137
Core_0_LLC_acc_level_4 41
Core_0_LLC_acc_level_5 185
Core_0_LLC_acc_level_6 41
Core_0_LLC_acc_level_7 35
Core_0_LLC_acc_level_8 23
Core_0_LLC_acc_level_9 185

Core_0_major_page_fault 0
Core_0_minor_page_fault 13874

scooby_st_lookup 3042320
scooby_st_hit 2956321
scooby_st_evict 85935
scooby_st_insert 85999
scooby_st_streaming 0

scooby_predict_called 3042320
scooby_predict_out_of_bounds 79160
scooby_predict_action_1 1059724
scooby_predict_issue_action_1 945651
scooby_predict_hit_action_1 114073
scooby_predict_out_of_bounds_action_1 17368
scooby_predict_action_3 652
scooby_predict_issue_action_3 469
scooby_predict_hit_action_3 183
scooby_predict_out_of_bounds_action_3 28
scooby_predict_action_4 4408
scooby_predict_issue_action_4 3947
scooby_predict_hit_action_4 461
scooby_predict_out_of_bounds_action_4 285
scooby_predict_action_5 559
scooby_predict_issue_action_5 421
scooby_predict_hit_action_5 138
scooby_predict_out_of_bounds_action_5 49
scooby_predict_action_10 564
scooby_predict_issue_action_10 374
scooby_predict_hit_action_10 190
scooby_predict_out_of_bounds_action_10 109
scooby_predict_action_11 535
scooby_predict_issue_action_11 334
scooby_predict_hit_action_11 201
scooby_predict_out_of_bounds_action_11 91
scooby_predict_action_12 536
scooby_predict_issue_action_12 411
scooby_predict_hit_action_12 125
scooby_predict_out_of_bounds_action_12 108
scooby_predict_action_22 345
scooby_predict_issue_action_22 229
scooby_predict_hit_action_22 116
scooby_predict_out_of_bounds_action_22 225
scooby_predict_action_23 390
scooby_predict_issue_action_23 279
scooby_predict_hit_action_23 111
scooby_predict_out_of_bounds_action_23 228
scooby_predict_action_30 291
scooby_predict_issue_action_30 193
scooby_predict_hit_action_30 98
scooby_predict_out_of_bounds_action_30 278
scooby_predict_action_32 239
scooby_predict_issue_action_32 159
scooby_predict_hit_action_32 80
scooby_predict_out_of_bounds_action_32 256
scooby_predict_action_-1 956595
scooby_predict_issue_action_-1 849042
scooby_predict_hit_action_-1 107553
scooby_predict_out_of_bounds_action_-1 15344
scooby_predict_action_-3 879640
scooby_predict_issue_action_-3 522461
scooby_predict_hit_action_-3 357179
scooby_predict_out_of_bounds_action_-3 44744
scooby_predict_action_-6 510
scooby_predict_issue_action_-6 477
scooby_predict_hit_action_-6 33
scooby_predict_out_of_bounds_action_-6 47
scooby_predict_action_0 58172
scooby_predict_issue_action_0 0
scooby_predict_hit_action_0 0
scooby_predict_out_of_bounds_action_0 0
scooby_predict_multi_deg_called 1799110
scooby_predict_predicted 9025466
scooby_predict_multi_deg 6701019
scooby_predict_multi_deg_2 1757811
scooby_predict_multi_deg_3 1500300
scooby_predict_multi_deg_4 1467957
scooby_predict_multi_deg_5 1000695
scooby_predict_multi_deg_6 974256
scooby_predict_multi_deg_7 0
scooby_predict_multi_deg_8 0
scooby_predict_multi_deg_9 0
scooby_predict_multi_deg_10 0
scooby_predict_multi_deg_11 0
scooby_predict_multi_deg_12 0
scooby_predict_multi_deg_13 0
scooby_predict_multi_deg_14 0
scooby_predict_multi_deg_15 0
scooby_predict_multi_deg_16 0

scooby_selected_deg_1 525337
scooby_selected_deg_2 233237
scooby_selected_deg_3 0
scooby_selected_deg_4 456232
scooby_selected_deg_5 0
scooby_selected_deg_6 1109641
scooby_selected_deg_7 0
scooby_selected_deg_8 0
scooby_selected_deg_9 0
scooby_selected_deg_10 0
scooby_selected_deg_11 0
scooby_selected_deg_12 0
scooby_selected_deg_13 0
scooby_selected_deg_14 0
scooby_selected_deg_15 0
scooby_selected_deg_16 0

scooby_state_402dc3|63|0 12765,0,0,0,3,1,1,1,3,1,1,1,3,2,2,12784,
scooby_state_402dc3|61|0 12649,0,0,2,0,2,2,3,1,3,0,1,1,2,1,12667,
scooby_state_402dc3|62|0 12646,2,1,0,1,2,1,1,2,1,0,0,1,2,1,12661,
scooby_state_402dfb|63|0 781,1,2,2,2,1,2,0,3,4,0,8484,42,0,1,9325,
scooby_state_402dc3|60|-3 7979,0,1,1,1,0,0,0,1,0,5,0,1,1,0,7990,
scooby_state_402dc3|59|-4 6517,2,1,0,1,0,0,0,0,0,2,1,0,2,2,6528,
scooby_state_402dc3|54|-3 6399,0,0,1,1,0,3,1,1,0,2,1,2,1,0,6412,
scooby_state_402dc0|52|-1 2,2,0,1,2,0,1,1,2,1,1,6378,0,1,0,6392,
scooby_state_402dc0|53|-1 0,1,2,0,1,1,3,1,1,1,3,6375,0,1,2,6392,
scooby_state_402dc0|54|-1 0,2,1,2,1,1,1,2,0,0,0,6380,2,0,0,6392,
scooby_state_402dc0|55|-1 0,3,2,0,1,0,2,1,0,0,0,6378,1,1,1,6390,
scooby_state_402dc0|56|-1 1,2,1,1,3,2,0,3,0,0,0,6375,0,0,0,6388,
scooby_state_402dc0|57|-1 1,1,0,0,2,1,0,1,0,1,1,6375,2,0,1,6386,
scooby_state_402dc3|58|-3 6372,0,0,0,1,1,0,0,0,2,3,0,2,0,4,6385,
scooby_state_402dc0|58|-1 1,1,0,1,3,0,1,2,1,0,1,6371,1,0,1,6384,
scooby_state_402dc0|59|-1 1,1,0,0,2,0,1,2,0,1,0,6371,0,2,1,6382,
scooby_state_402dc3|57|-3 6370,1,0,0,2,1,0,2,1,0,0,1,2,0,0,6380,
scooby_state_402dc0|60|-1 1,1,1,1,2,0,0,3,1,0,2,6367,0,1,0,6380,
scooby_state_402dc0|61|-1 0,1,1,0,1,3,0,1,1,1,1,6367,1,0,0,6378,
scooby_state_402dc0|62|-1 1,2,1,1,2,1,1,1,0,1,2,6363,0,0,0,6376,
scooby_state_402dc0|63|0 4,1,1,0,0,0,1,1,1,0,0,6363,0,0,2,6374,
scooby_state_402dc0|0|-1 2,2,0,3,1,1,1,0,2,1,0,6358,1,0,0,6372,
scooby_state_402dc0|1|-1 2,1,1,1,0,0,2,0,3,0,3,6355,1,0,1,6370,
scooby_state_402dc0|2|-1 1,0,2,1,0,1,1,0,0,1,1,6360,0,0,0,6368,
scooby_state_402dc0|3|-1 3,1,0,2,0,1,2,0,0,1,1,6352,2,1,0,6366,
scooby_state_402dc0|4|-1 2,0,0,1,1,3,1,2,0,0,0,6352,0,0,2,6364,
scooby_state_402dc0|5|-1 1,2,1,1,0,0,2,1,1,0,0,6353,0,0,1,6363,
scooby_state_402dc0|6|-1 1,1,1,1,1,1,1,1,1,1,1,6347,2,0,1,6361,
scooby_state_402dc0|7|-1 1,0,1,1,1,1,3,0,2,2,0,6346,0,0,1,6359,
scooby_state_402dc0|8|-1 1,1,1,1,0,1,2,2,3,0,0,6342,3,0,0,6357,
scooby_state_402dc0|9|-1 1,1,1,1,1,0,1,1,1,1,1,6343,0,1,1,6355,
scooby_state_402dc0|10|-1 2,0,0,1,1,1,1,0,1,0,0,6345,1,0,0,6353,
scooby_state_402dc0|13|-1 1,1,1,3,0,4,1,0,3,1,0,6336,0,1,0,6352,
scooby_state_402dc0|11|-1 1,2,1,1,1,2,2,1,0,0,3,6336,0,1,1,6352,
scooby_state_402dc0|12|-1 2,2,0,1,0,1,5,2,3,2,0,6331,0,2,1,6352,
scooby_state_402dc0|14|-1 1,1,1,2,0,1,3,1,0,1,2,6338,0,1,0,6352,
scooby_state_402dc0|36|-1 0,1,4,2,0,1,3,0,1,1,0,6335,0,1,2,6351,
scooby_state_402dc0|32|-1 0,2,3,0,1,1,1,0,3,0,0,6339,0,0,1,6351,
scooby_state_402dc0|23|-1 0,1,2,0,0,1,1,1,0,0,0,6343,1,0,1,6351,
scooby_state_402dc0|43|-1 0,1,0,0,1,0,1,3,0,0,0,6341,2,1,1,6351,
scooby_state_402dc0|26|-1 0,0,2,1,0,2,1,1,0,1,0,6342,1,0,0,6351,
scooby_state_402dc0|50|-1 1,1,2,0,1,2,1,2,2,2,0,6336,0,1,0,6351,
scooby_state_402dc0|38|-1 0,0,2,2,0,2,2,0,2,0,1,6338,0,0,2,6351,
scooby_state_402dc0|22|-1 0,0,1,2,2,1,0,0,0,1,1,6337,2,3,1,6351,
scooby_state_402dc0|16|-1 1,0,0,2,0,1,1,1,3,1,0,6341,0,0,0,6351,
scooby_state_402dc0|35|-1 0,2,2,0,1,2,2,0,1,0,0,6339,2,0,0,6351,
scooby_state_402dc0|48|-1 0,1,1,0,2,0,0,2,0,1,0,6343,0,1,0,6351,
scooby_state_402dc0|21|-1 0,0,3,1,1,1,1,1,1,0,1,6338,0,1,2,6351,
scooby_state_402dc0|45|-1 1,1,0,1,1,1,0,2,1,1,0,6342,0,0,0,6351,
scooby_state_402dc0|19|-1 0,0,0,2,2,1,1,0,0,0,2,6340,1,1,1,6351,
scooby_state_402dc0|27|-1 2,2,1,0,3,1,1,1,1,0,0,6338,1,0,0,6351,
scooby_state_402dc0|15|-1 0,1,1,4,1,2,2,0,0,1,0,6338,0,0,1,6351,
scooby_state_402dc0|47|-1 0,1,0,1,4,0,0,2,1,0,0,6339,1,1,1,6351,
scooby_state_402dc0|46|-1 0,3,0,1,1,1,1,1,1,1,0,6338,0,3,0,6351,
scooby_state_402dc0|24|-1 0,0,1,0,0,2,0,2,1,1,0,6343,1,0,0,6351,
scooby_state_402dc0|28|-1 0,1,1,1,0,1,1,0,0,1,0,6343,1,0,1,6351,
scooby_state_402dc0|49|-1 0,1,0,1,1,0,1,2,0,1,0,6342,1,0,1,6351,
scooby_state_402dc0|25|-1 3,0,2,0,0,2,2,0,0,0,0,6339,1,0,2,6351,
scooby_state_402dc0|41|-1 0,3,1,1,2,1,1,1,0,1,0,6340,0,0,0,6351,
scooby_state_402dc0|39|-1 1,0,3,0,1,3,2,1,2,1,1,6334,0,0,2,6351,
scooby_state_402dc0|17|-1 0,2,0,2,0,0,2,0,1,0,3,6338,2,0,1,6351,
scooby_state_402dc0|51|-1 0,2,2,2,1,0,1,2,0,2,2,6335,0,0,2,6351,
scooby_state_402dc0|31|-1 0,0,2,1,1,1,1,1,2,1,1,6338,2,0,0,6351,
scooby_state_402dc0|33|-1 1,3,4,2,2,2,1,0,2,1,0,6331,0,2,0,6351,
scooby_state_402dc0|20|-1 0,1,0,3,0,0,1,0,0,0,2,6338,5,1,0,6351,
scooby_state_402dc0|29|-1 1,5,2,0,0,3,0,1,2,0,1,6334,0,1,1,6351,
scooby_state_402dc0|18|-1 2,0,1,1,0,2,2,1,0,0,0,6337,2,2,1,6351,
scooby_state_402dc0|40|-1 1,1,3,0,1,0,2,0,1,2,0,6336,2,1,1,6351,
scooby_state_402dc0|30|-1 0,2,1,2,0,2,1,0,0,0,1,6338,2,0,2,6351,
scooby_state_402dc0|34|-1 1,0,2,1,0,3,0,0,3,0,0,6339,1,0,1,6351,
scooby_state_402dc0|37|-1 1,2,2,1,1,1,2,1,1,2,0,6334,1,2,0,6351,
scooby_state_402dc0|42|-1 1,2,1,0,2,1,1,1,1,2,1,6334,3,0,1,6351,
scooby_state_402dc0|44|-1 0,3,2,1,3,0,1,2,1,0,0,6338,0,0,0,6351,
scooby_state_402dc3|59|-3 6247,0,0,1,1,1,1,1,1,1,0,0,2,0,0,6256,
scooby_state_402dc3|56|-3 6204,1,0,1,1,0,0,3,0,0,2,1,2,1,0,6216,
scooby_state_402dc3|53|-3 6177,1,2,0,1,1,0,2,2,1,2,0,0,1,0,6190,
scooby_state_402dc3|57|-4 6095,0,0,0,1,2,1,1,0,1,0,0,4,0,0,6105,
scooby_state_402dc3|55|-3 6090,0,0,1,2,2,0,0,0,0,0,0,0,1,1,6097,
scooby_state_402dc3|56|-4 6000,2,3,1,0,1,0,1,4,0,0,0,0,1,0,6013,
scooby_state_402dc3|58|-4 5810,0,1,0,2,0,1,2,1,1,2,1,0,2,1,5824,
scooby_state_402dc3|50|-3 5782,1,1,0,1,1,0,1,0,3,0,0,1,0,1,5792,
scooby_state_402dc3|51|-3 5632,0,1,2,0,0,1,1,0,0,1,1,2,1,0,5642,
scooby_state_402dc3|47|-4 5553,1,1,1,0,1,0,0,0,1,0,1,0,0,1,5560,
scooby_state_402dc3|46|-3 5492,0,2,0,2,2,1,2,0,0,2,3,2,2,0,5510,
scooby_state_402dc3|53|-4 5467,3,2,0,1,2,1,0,1,3,0,0,1,1,0,5482,
scooby_state_402dc3|49|-3 5469,1,1,0,0,1,0,0,1,1,0,2,2,0,2,5480,
scooby_state_402dc3|55|-4 5407,1,1,0,0,1,1,1,0,0,0,0,0,2,1,5415,
scooby_state_402dc3|48|-3 5325,1,0,0,0,0,1,2,0,3,0,1,1,0,0,5334,
scooby_state_402dc3|52|-4 5322,0,1,1,2,2,0,0,1,2,0,0,1,0,1,5333,
scooby_state_402dc3|45|-3 5305,1,2,0,1,0,2,1,2,0,0,1,3,0,1,5319,
scooby_state_402dc3|50|-4 5253,0,3,0,1,2,2,1,0,1,0,2,0,0,0,5265,
scooby_state_402dc3|44|-3 5185,2,0,0,0,0,1,2,0,0,0,0,1,1,0,5192,
scooby_state_402dc3|52|-3 5165,0,0,0,2,2,0,0,0,0,2,0,1,1,1,5174,
scooby_state_402dc3|54|-4 5157,1,3,0,0,2,4,0,0,0,0,0,0,0,0,5167,
scooby_state_402dc3|26|-3 5142,1,0,2,0,1,2,0,0,0,1,0,0,0,2,5151,
scooby_state_402dc3|31|-4 5118,1,0,0,0,0,0,1,0,0,0,1,0,2,2,5125,
scooby_state_402dc3|42|-3 5059,0,0,0,0,0,2,0,0,0,1,0,1,0,0,5063,
scooby_state_402dc3|43|-4 5026,1,0,0,0,0,1,0,1,0,0,2,0,0,1,5032,
scooby_state_402dfb|50|-2 0,1,0,2,1,1,2,1,1,0,0,4995,1,2,0,5007,
scooby_state_402dfb|40|-2 0,1,0,0,1,2,0,1,2,0,1,4992,1,0,3,5004,
scooby_state_402dc3|30|-3 4980,1,0,0,2,1,0,3,1,1,0,0,0,0,2,4991,
scooby_state_402dc3|41|-3 4978,0,1,1,2,0,1,0,1,1,2,0,0,0,0,4987,
scooby_state_402dfb|0|-1 2,2,0,0,2,0,0,1,0,2,0,3022,1950,1,0,4982,
scooby_state_402dc3|43|-3 4971,0,0,3,0,0,0,0,1,0,1,1,1,1,2,4981,
scooby_state_402dc3|47|-3 4957,0,0,0,0,1,1,2,3,0,1,0,0,2,1,4968,
scooby_state_402dc3|13|-3 4958,1,0,0,0,2,0,0,0,1,0,1,1,3,0,4967,
scooby_state_402dc3|51|-4 4940,0,0,1,2,0,1,0,0,1,0,0,0,1,0,4946,
scooby_state_402dc3|29|-3 4940,1,1,0,0,0,0,0,0,1,0,1,0,1,0,4945,
scooby_state_402dc3|23|-3 4916,2,1,0,1,1,0,0,2,2,0,0,0,0,0,4925,
scooby_state_402dc3|14|-3 4910,1,2,2,3,0,0,0,2,0,0,0,2,1,0,4923,
scooby_state_402dfb|44|-2 0,0,1,0,3,0,0,2,0,1,1,4907,2,3,0,4920,
scooby_state_402dc3|24|-3 4902,0,0,0,2,1,0,2,1,0,1,0,2,1,1,4913,
scooby_state_402dc3|10|-3 4896,0,1,1,1,0,1,1,1,2,4,1,0,0,0,4909,
scooby_state_402dc3|6|-3 4899,0,1,0,0,0,1,0,0,0,0,1,0,1,3,4906,
scooby_state_402dfb|56|-2 1,0,0,0,0,2,0,1,4,1,2,4888,1,0,0,4900,
scooby_state_402dc3|36|-4 4880,1,0,2,1,1,1,0,0,3,0,1,0,0,1,4891,
scooby_state_402dc3|27|-3 4880,0,1,0,0,0,0,1,0,1,0,1,0,0,2,4886,
scooby_state_402dfb|53|-2 2,0,2,1,0,3,2,0,3,0,1,4866,0,1,0,4881,
scooby_state_402dfb|53|-1 1,0,2,1,3,2,0,3,0,0,2,3165,1700,0,1,4880,
scooby_state_402dfb|24|-1 0,1,1,0,1,1,0,1,1,0,1,3149,1720,0,0,4876,
scooby_state_402dfb|16|-1 0,1,2,1,2,0,1,0,1,0,0,3014,1847,1,0,4870,
scooby_state_402dc3|46|-4 4854,0,0,0,0,2,0,2,0,1,0,2,0,1,0,4862,
scooby_state_402dfb|61|-2 3,1,1,3,0,1,0,1,2,0,0,4847,0,0,1,4860,
scooby_state_402dc3|40|-4 4843,2,0,0,0,0,0,0,1,0,1,0,2,0,0,4849,
scooby_state_402dc3|33|-3 4843,0,0,1,0,1,1,1,1,0,0,0,0,0,0,4848,
scooby_state_402dc3|22|-3 4826,1,1,1,0,1,1,2,0,0,0,1,0,0,1,4835,
scooby_state_402dfb|8|-2 1,0,1,1,2,3,0,1,1,1,0,4801,1,1,0,4814,
scooby_state_402dc3|16|-3 4799,1,2,1,1,1,2,2,0,0,0,1,0,0,0,4810,
scooby_state_402dc3|20|-4 4798,1,0,0,1,0,0,1,1,0,1,1,1,0,1,4806,
scooby_state_402dc3|48|-4 4790,2,1,1,1,0,0,3,1,2,0,0,0,3,1,4805,
scooby_state_402dfb|24|-2 1,1,2,2,1,0,1,0,1,0,0,4789,0,0,1,4799,
scooby_state_402dc3|40|-3 4785,2,0,1,2,1,1,1,1,0,1,2,0,1,0,4798,
scooby_state_402dc3|60|0 4782,1,3,0,1,1,0,1,1,0,1,1,2,0,0,4794,
scooby_state_402dc3|49|-4 4779,2,2,0,2,0,0,0,0,1,0,2,0,0,0,4788,
scooby_state_402dfb|62|0 389,0,0,0,0,1,0,0,0,0,0,4366,28,0,0,4784,
scooby_state_402dfb|51|-2 2,1,1,1,0,2,0,0,0,0,1,4770,0,1,0,4779,
scooby_state_402dc3|9|-3 4769,0,1,0,1,0,0,0,0,1,0,1,1,2,2,4778,
scooby_state_402dc3|37|-3 4768,0,0,1,0,1,1,0,2,0,2,0,0,0,1,4776,
scooby_state_402dc3|21|-3 4751,1,1,0,1,3,0,0,0,1,0,1,0,1,0,4760,
scooby_state_402dfb|32|-1 0,2,1,1,2,1,0,0,1,1,1,3034,1711,0,0,4755,
scooby_state_402dfb|28|-2 0,1,0,1,2,1,1,1,1,2,1,4739,0,2,1,4753,
scooby_state_402dc3|19|-3 4742,0,0,0,1,0,0,1,3,1,0,0,2,0,0,4750,
scooby_state_402dfb|34|-2 0,0,1,1,3,0,4,0,1,1,0,4731,0,2,0,4744,
scooby_state_402dfb|43|-2 0,2,0,0,2,2,0,1,3,1,3,4729,1,0,0,4744,
scooby_state_402dc3|44|-4 4732,0,0,2,0,0,1,1,1,1,0,1,0,2,1,4742,
scooby_state_402dfb|37|-2 0,2,1,1,2,1,2,1,1,0,3,4723,0,0,1,4738,
scooby_state_402dc3|15|-4 4732,2,0,0,0,1,0,0,0,0,0,0,1,1,1,4738,
scooby_state_402dc3|17|-3 4726,1,1,0,0,1,0,0,1,0,1,2,1,0,2,4736,
scooby_state_402dc3|7|-3 4719,0,1,0,0,1,0,0,0,0,1,4,0,0,0,4726,
scooby_state_402dc3|23|-4 4717,0,0,1,0,0,0,1,1,0,0,0,0,1,1,4722,
scooby_state_402dfb|11|-1 0,1,0,0,3,0,2,0,2,0,3,3004,1694,0,1,4710,
scooby_state_402dc3|25|-3 4693,2,2,1,0,3,1,0,1,0,1,0,1,2,1,4708,
scooby_state_402dc3|42|-4 4700,0,1,0,1,1,0,1,1,0,1,0,2,0,0,4708,
scooby_state_402dc3|7|-4 4704,0,0,0,0,1,0,0,0,0,0,0,1,0,1,4707,
scooby_state_402dfb|49|-2 1,0,2,2,2,1,2,2,0,0,1,4692,1,0,0,4706,
scooby_state_402dc3|34|-3 4693,1,0,2,0,3,0,0,0,1,0,2,2,0,1,4705,
scooby_state_402dc3|5|-3 4693,0,1,0,0,1,2,0,0,0,0,3,0,1,0,4701,
scooby_state_402dfb|35|-2 0,1,0,1,2,1,1,0,1,0,0,4686,0,1,0,4694,
scooby_state_402dfb|3|-2 0,0,2,1,1,0,1,2,1,2,1,4675,0,1,0,4687,
scooby_state_402dfb|8|-1 2,3,0,0,1,0,0,2,3,0,0,2963,1706,4,1,4685,
scooby_state_402dc3|1|-3 4676,1,0,0,0,0,0,1,3,1,1,0,0,1,0,4684,
scooby_state_402dfb|52|-2 1,1,0,0,1,0,2,0,0,2,0,4670,0,1,1,4679,
scooby_state_402dfb|1|-2 0,1,2,0,1,1,0,0,0,3,2,4663,1,0,0,4674,
scooby_state_402dfb|21|-1 1,1,1,0,1,0,0,1,1,0,0,3034,1633,0,0,4673,
scooby_state_402dc3|28|-3 4663,1,0,0,2,0,1,1,0,1,0,1,0,0,2,4672,
scooby_state_402dc3|5|-4 4660,0,0,0,0,0,0,1,0,0,0,0,1,0,0,4662,
scooby_state_402dc3|13|-4 4647,2,0,2,1,1,0,0,1,2,0,0,1,1,1,4659,
scooby_state_402dc3|11|-3 4646,3,0,0,2,0,2,0,0,1,0,2,2,0,1,4659,
scooby_state_402dfb|42|-1 1,2,1,3,0,1,1,0,2,0,0,2858,1789,0,0,4658,
scooby_state_402dc3|39|-3 4648,0,0,0,0,2,2,0,0,0,0,0,1,2,0,4655,
scooby_state_402dfb|48|-2 2,2,2,2,0,1,0,0,3,0,0,4638,0,0,1,4651,
scooby_state_402dc3|18|-4 4633,1,1,1,1,0,0,1,1,0,3,2,2,1,1,4648,
scooby_state_402dc3|2|-4 4629,0,1,3,1,0,0,1,0,2,0,0,0,1,1,4639,
scooby_state_402dfb|26|-2 1,1,1,0,1,2,1,0,2,2,1,4623,0,0,0,4635,
scooby_state_402dfb|26|-1 1,1,0,0,1,0,1,0,1,1,0,2879,1742,2,1,4630,
scooby_state_402dc3|27|-4 4619,1,0,0,0,1,2,1,1,0,1,0,1,0,1,4628,
scooby_state_402dc3|45|-4 4612,0,0,0,0,0,0,0,0,2,0,0,0,0,4,4618,
scooby_state_402dfb|42|-2 2,1,0,0,2,0,4,1,1,1,1,4589,0,3,2,4607,
scooby_state_402dc3|3|-3 4599,0,4,0,0,1,0,1,0,0,1,1,0,0,0,4607,
scooby_state_402dfb|19|-2 2,0,1,0,1,0,0,1,1,1,0,4599,0,0,0,4606,
scooby_state_402dfb|13|-2 2,0,1,2,0,2,0,0,0,2,0,4589,2,1,0,4601,
scooby_state_402dfb|37|-1 0,1,0,0,0,2,0,0,4,0,1,2916,1676,0,0,4600,
scooby_state_402dfb|17|-2 0,1,0,0,0,0,2,1,1,0,1,4593,0,1,0,4600,
scooby_state_402dfb|46|-1 1,1,0,0,2,2,0,0,0,1,0,3037,1555,0,0,4599,
scooby_state_402dfb|5|-1 1,0,1,0,2,1,1,1,0,1,1,2983,1600,1,0,4593,
scooby_state_402dc3|41|-4 4583,0,0,1,2,0,1,1,0,0,0,1,0,0,1,4590,
scooby_state_402dfb|6|-2 1,1,0,0,2,0,1,1,0,5,0,4576,0,0,0,4587,
scooby_state_402dfb|38|-2 2,3,1,2,3,1,0,0,1,0,2,4570,1,0,1,4587,
scooby_state_402dc3|35|-3 4571,0,1,2,2,0,0,0,0,0,0,0,1,0,0,4577,
scooby_state_402dfb|0|-2 1,0,1,0,0,2,0,1,2,1,2,4566,0,0,0,4576,
scooby_state_402dc3|8|-3 4562,1,0,0,2,2,2,1,0,1,0,2,0,1,2,4576,
scooby_state_402dc3|32|-3 4563,1,1,0,1,1,0,1,0,0,0,1,0,2,1,4572,
scooby_state_402dfb|22|-2 0,1,0,0,1,1,1,1,1,1,0,4562,1,1,0,4571,
scooby_state_402dfb|47|-2 2,2,0,1,2,1,3,0,0,1,3,4552,0,1,1,4569,
scooby_state_402dc3|2|-3 4558,1,1,1,0,0,2,1,0,4,0,1,0,0,0,4569,
scooby_state_402dcb|0|-3 2,3,4,0,0,0,0,0,0,0,1,29,4527,2,0,4568,
scooby_state_402dfb|43|-1 0,0,1,1,1,2,1,1,0,2,0,2922,1634,0,0,4565,
scooby_state_402dfb|27|-1 0,0,0,1,1,1,0,1,1,1,3,2892,1663,0,1,4565,
scooby_state_402dfb|48|-1 0,1,3,0,0,1,0,3,0,1,2,3055,1497,0,2,4565,
scooby_state_402dc3|18|-3 4547,2,2,0,1,1,2,0,1,1,2,0,2,2,1,4564,
scooby_state_402dfb|28|-1 0,0,1,0,1,0,1,0,1,1,1,2889,1665,0,1,4561,
scooby_state_402dfb|52|-1 1,1,0,1,1,0,1,0,1,0,0,2882,1672,1,0,4561,
scooby_state_402dfb|45|-1 2,0,1,2,0,2,2,2,0,1,2,2973,1573,1,0,4561,
scooby_state_402dfb|10|-1 1,0,2,0,0,0,2,1,0,1,2,2967,1577,0,1,4554,
scooby_state_402dfb|5|-2 2,0,1,1,0,3,2,2,3,1,0,4533,1,0,0,4549,
scooby_state_402dfb|23|-1 1,1,1,0,2,1,2,0,1,1,0,3091,1447,1,0,4549,
scooby_state_402dfb|4|-1 2,1,1,2,1,5,0,1,2,1,0,2820,1710,0,0,4546,
scooby_state_402dc3|11|-4 4541,0,0,1,0,1,0,2,0,0,0,0,0,1,0,4546,
scooby_state_402dc3|21|-4 4538,0,1,0,0,0,1,0,0,0,1,0,1,1,0,4543,
scooby_state_402dfb|59|-2 1,0,1,0,1,2,1,1,0,1,1,4532,0,0,2,4543,
scooby_state_402dc3|0|-3 4529,1,1,0,2,0,0,0,0,1,2,0,0,1,0,4537,
scooby_state_402dfb|20|-1 4,0,1,0,0,1,0,0,2,1,0,3028,1498,1,0,4536,
scooby_state_402dfb|17|-1 1,0,2,1,0,2,1,1,0,0,1,2805,1718,1,2,4535,
scooby_state_402dfb|41|-2 1,1,1,1,1,0,0,3,1,1,2,4517,0,0,0,4529,
scooby_state_402dfb|14|-1 0,2,1,1,0,0,1,2,0,0,2,2874,1631,0,0,4514,
scooby_state_402dc3|12|-3 4497,2,1,0,0,1,0,0,0,1,1,3,0,1,0,4507,
scooby_state_402dfb|44|-1 0,0,1,1,2,0,1,0,0,0,1,2976,1516,1,0,4499,
scooby_state_402dfb|60|-2 0,1,0,1,1,0,2,0,0,2,0,4486,0,0,0,4493,
scooby_state_402dfb|18|-2 2,1,0,1,1,1,0,1,0,1,1,4481,0,0,1,4491,
scooby_state_402dfb|51|-1 1,0,0,2,1,2,1,2,0,1,0,2863,1611,0,2,4486,
scooby_state_402dfb|27|-2 0,1,0,1,1,0,1,0,1,1,0,4477,0,1,0,4484,
scooby_state_402dfb|45|-2 0,1,0,2,1,0,1,0,1,1,1,4471,0,0,1,4480,
scooby_state_402dfb|36|-1 1,3,1,0,1,0,1,0,0,2,0,2933,1534,0,3,4479,
scooby_state_402dc3|37|-4 4469,1,2,0,1,2,0,0,0,0,0,1,0,0,1,4477,
scooby_state_402dfb|30|-1 1,0,2,3,2,0,1,1,1,0,0,2807,1658,0,0,4476,
scooby_state_402dc3|32|-4 4463,1,0,0,1,0,0,0,1,1,1,0,0,1,2,4471,
scooby_state_402dfb|15|-2 3,0,1,1,2,0,1,1,2,0,2,4456,1,0,1,4471,
scooby_state_402dfb|7|-2 1,0,0,1,1,1,1,1,0,0,2,4457,1,0,3,4469,
scooby_state_402dc3|35|-4 4446,0,1,1,0,1,1,0,0,1,1,0,0,0,0,4452,
scooby_state_402dfb|46|-2 0,1,2,1,1,2,0,1,1,1,1,4437,2,0,1,4451,
scooby_state_402dc3|24|-4 4446,1,1,1,0,0,0,0,0,0,0,0,0,0,1,4450,
scooby_state_402dfb|2|-1 0,1,1,1,0,2,0,3,1,1,0,2896,1542,1,1,4450,
scooby_state_402dc3|12|-4 4429,1,1,0,0,0,0,0,0,0,0,2,2,0,0,4435,
scooby_state_402dfb|29|-2 0,0,2,0,0,1,1,1,0,2,0,4425,0,1,0,4433,
scooby_state_402dc3|36|-3 4428,0,0,0,0,0,0,2,0,0,0,1,0,0,0,4431,
scooby_state_402dc3|9|-4 4416,2,0,2,0,0,1,1,0,2,1,0,0,0,0,4425,
scooby_state_402dc3|16|-4 4415,0,0,0,1,1,1,1,0,2,0,0,0,2,2,4425,
scooby_state_402dfb|16|-2 0,2,2,1,0,0,0,1,1,3,2,4410,1,1,0,4424,
scooby_state_402dc3|4|-3 4415,1,1,0,0,0,1,1,0,0,1,1,2,0,0,4423,
scooby_state_402dc3|0|-4 4411,0,1,1,0,1,1,1,1,1,0,2,2,0,1,4423,
scooby_state_402dc3|26|-4 4419,0,0,1,0,0,0,0,0,0,0,1,0,0,1,4422,
scooby_state_402dfb|10|-2 1,0,0,1,0,1,0,1,0,1,0,4410,1,1,2,4419,
scooby_state_402dfb|39|-2 0,1,1,0,2,0,0,1,0,1,0,4410,0,0,0,4416,
scooby_state_402dfb|33|-1 0,1,1,1,2,0,1,1,1,1,0,2854,1550,1,1,4415,
scooby_state_402dfb|30|-2 1,1,0,0,0,1,1,1,3,2,1,4402,0,0,1,4414,
scooby_state_402dc3|8|-4 4404,0,0,0,2,0,0,1,1,0,1,3,0,1,0,4413,
scooby_state_402dc3|3|-4 4398,0,1,1,1,0,0,0,0,0,1,0,1,2,1,4406,
scooby_state_402dfb|58|-2 1,0,1,1,0,0,1,0,1,0,1,4398,1,1,0,4406,
scooby_state_402dc3|34|-4 4397,0,0,0,0,0,0,1,1,3,0,0,0,1,2,4405,
scooby_state_402dc3|30|-4 4390,0,2,0,2,0,0,4,2,0,1,1,0,0,0,4402,
scooby_state_402dfb|39|-1 0,2,0,1,0,0,2,2,3,0,0,2766,1617,0,2,4395,
scooby_state_402dfb|23|-2 1,0,3,2,2,1,1,1,1,1,2,4377,1,1,0,4394,
scooby_state_402dc3|38|-3 4384,1,1,1,1,1,0,0,0,3,2,0,0,0,0,4394,
scooby_state_402dc3|19|-4 4383,0,1,0,0,0,2,2,0,0,1,0,2,1,0,4392,
scooby_state_402dfb|21|-2 1,0,2,0,1,1,1,2,1,4,0,4372,1,0,4,4390,
scooby_state_402dc3|10|-4 4377,1,2,0,1,1,1,1,3,0,0,1,0,1,0,4389,
scooby_state_402dfb|54|-2 1,0,1,0,1,0,0,1,1,0,1,4373,0,1,0,4380,
scooby_state_402dc3|25|-4 4376,0,0,0,1,0,0,0,0,0,0,0,1,1,0,4379,
scooby_state_402dfb|40|-1 0,0,1,0,0,3,1,1,0,0,1,2870,1493,0,0,4370,
scooby_state_402dfb|56|-1 0,0,2,0,1,0,1,1,0,0,1,2824,1530,3,1,4364,
scooby_state_402dfb|12|-2 0,2,1,1,0,1,2,1,0,0,2,4343,1,0,2,4356,
scooby_state_402dc3|29|-4 4338,0,3,1,2,0,0,0,1,0,1,0,3,2,1,4352,
scooby_state_402dc3|28|-4 4340,0,0,1,2,1,1,0,0,2,0,2,0,0,1,4350,
scooby_state_402dfb|33|-2 0,1,0,1,0,1,0,3,0,1,1,4339,0,0,2,4349,
scooby_state_402dfb|1|-1 0,1,0,2,1,0,1,1,1,0,0,2753,1584,0,1,4345,
scooby_state_402dc3|20|-3 4330,1,1,0,0,0,0,1,1,1,0,0,0,0,2,4337,
scooby_state_402dfb|12|-1 3,0,0,0,1,3,2,1,0,1,0,2750,1574,0,0,4335,
scooby_state_402dfb|13|-1 0,1,0,0,1,0,2,2,3,2,1,2740,1569,0,1,4322,
scooby_state_402dfb|25|-1 0,0,1,1,1,0,0,1,0,1,0,2735,1579,1,0,4320,
scooby_state_402dc3|6|-4 4313,0,0,1,0,0,1,0,1,0,1,0,0,0,0,4317,
scooby_state_402dfb|31|-2 0,0,1,0,1,0,2,1,1,2,0,4305,0,1,2,4316,
scooby_state_402dc3|14|-4 4312,0,0,0,0,0,0,0,1,0,1,0,0,0,1,4315,
scooby_state_402dfb|18|-1 1,0,4,0,2,3,0,2,0,0,0,2754,1546,1,1,4314,
scooby_state_402dfb|49|-1 0,1,0,0,0,0,2,0,0,1,0,2893,1412,1,0,4310,
scooby_state_402dc3|4|-4 4302,0,0,1,1,0,0,1,0,0,0,0,1,1,0,4307,
scooby_state_402dfb|3|-1 1,1,1,0,3,0,2,0,1,0,1,2736,1555,0,0,4301,
scooby_state_402dfb|19|-1 1,1,1,1,1,0,1,1,0,0,1,2842,1450,0,0,4300,
scooby_state_402dfb|61|-1 0,0,2,1,1,0,0,3,0,0,2,2905,1384,0,2,4300,
scooby_state_402dfb|11|-2 0,0,2,0,2,0,0,1,0,0,0,4291,0,1,1,4298,
scooby_state_402dfb|22|-1 1,0,0,1,1,1,2,2,0,0,2,2793,1482,0,1,4286,
scooby_state_402dc3|39|-4 4253,0,0,1,2,1,1,0,0,1,0,1,0,0,1,4261,
scooby_state_402dfb|55|-2 0,1,0,0,0,0,1,0,1,2,0,4255,0,1,0,4261,
scooby_state_402dfb|38|-1 0,1,0,1,1,2,1,2,1,1,1,2744,1501,0,0,4256,
scooby_state_402dc3|22|-4 4251,0,0,2,1,0,0,0,0,0,0,0,0,0,0,4254,
scooby_state_402dfb|34|-1 1,1,2,0,1,0,0,1,2,0,1,2698,1547,0,0,4254,
scooby_state_402dfb|55|-1 1,0,0,1,0,2,0,0,1,0,0,2680,1567,0,0,4252,
scooby_state_402dc3|38|-4 4241,1,1,0,0,1,0,0,0,0,1,2,0,1,1,4249,
scooby_state_402dfb|15|-1 0,1,1,1,1,2,0,1,1,1,0,2735,1497,1,0,4242,
scooby_state_402dfb|6|-1 0,1,0,1,0,1,1,1,0,1,1,2753,1479,1,0,4240,
scooby_state_402dfb|41|-1 0,1,1,0,2,0,1,0,0,1,1,2691,1518,0,1,4217,
scooby_state_402dfb|29|-1 0,1,0,0,3,2,1,0,1,0,1,2595,1611,1,0,4216,
scooby_state_402dfb|32|-2 0,1,1,0,1,0,2,1,1,0,0,4205,0,0,1,4213,
scooby_state_402dfb|54|-1 2,1,0,0,1,0,3,1,0,1,1,2709,1488,2,0,4209,
scooby_state_402dfb|2|-2 2,0,1,1,0,1,2,0,1,0,0,4198,0,0,0,4206,
scooby_state_402dc3|15|-3 4191,0,0,0,2,1,0,1,1,1,2,1,1,3,0,4204,
scooby_state_402dfb|58|-1 1,1,3,0,0,2,1,0,0,0,3,2774,1414,1,0,4200,
scooby_state_402dfb|50|-1 1,1,1,1,0,1,1,0,2,0,2,2700,1479,0,0,4189,
scooby_state_402dfb|20|-2 0,0,0,1,0,0,1,1,0,2,2,4148,0,1,0,4156,
scooby_state_402dfb|7|-1 1,0,1,0,0,1,0,0,1,1,0,2804,1345,0,1,4155,
scooby_state_402dfb|36|-2 0,1,1,2,2,1,0,1,1,0,1,4140,0,2,1,4153,
scooby_state_402dfb|57|-1 0,1,0,1,2,1,2,2,0,1,0,2754,1377,0,2,4143,
scooby_state_402dfb|25|-2 0,1,2,1,1,0,0,0,1,1,2,4132,0,0,1,4142,
scooby_state_402dfb|35|-1 1,1,0,1,0,2,0,2,1,0,1,2714,1416,0,1,4140,
scooby_state_402dfb|14|-2 0,2,1,0,1,1,0,0,1,0,0,4118,0,1,1,4126,
scooby_state_402dfb|59|-1 0,2,0,0,1,1,1,1,0,2,1,2719,1382,0,0,4110,
scooby_state_402dfb|9|-1 2,1,0,3,0,1,0,3,1,0,0,2688,1410,0,0,4109,
scooby_state_402dfb|47|-1 1,1,0,1,1,1,0,0,1,1,2,2728,1366,0,0,4103,
scooby_state_402dc3|33|-4 4072,0,1,0,0,0,1,0,1,0,1,0,0,0,0,4076,
scooby_state_402dc3|17|-4 4051,2,0,0,1,0,1,0,1,1,1,0,1,1,0,4060,
scooby_state_402dfb|31|-1 1,0,2,0,2,0,1,0,1,0,1,2700,1345,0,0,4053,
scooby_state_402dfb|60|-1 1,1,0,2,1,0,1,1,3,0,1,2681,1358,1,1,4052,
scooby_state_402dc3|1|-4 4039,1,0,0,0,1,0,1,0,0,1,1,0,0,0,4044,
scooby_state_402dfb|4|-2 1,2,0,1,0,0,2,0,1,2,1,4019,0,0,1,4030,
scooby_state_402dfb|9|-2 0,2,0,1,2,2,2,0,3,0,0,3997,0,0,2,4011,
scooby_state_402dc3|31|-3 3978,0,0,2,0,1,1,0,0,0,0,0,1,0,2,3985,
scooby_state_402dfb|57|-2 0,0,2,0,1,1,0,2,0,1,0,3804,0,0,0,3811,
scooby_state_402dfb|62|-1 0,1,1,0,1,0,2,0,0,2,0,2548,1231,0,0,3786,
scooby_state_402dc7|63|0 6,2,1,2,2,1,0,0,0,0,1,661,2940,1,1,3618,
scooby_state_402dcb|1|-3 1,0,0,0,0,0,1,1,0,0,0,16,2986,0,0,3005,
scooby_state_402dcb|2|1 0,0,0,0,0,0,0,1,1,1,1,2,2709,0,0,2715,
scooby_state_402dcb|1|1 0,3,2,2,0,1,1,0,0,1,0,0,2683,0,0,2693,
scooby_state_402dcb|3|1 0,1,0,1,0,0,2,2,2,0,1,1,2646,0,0,2656,
scooby_state_402dcb|3|-3 0,0,0,0,0,0,0,0,1,0,0,16,2607,1,0,2625,
scooby_state_403083|33|1 872,1,64,3,0,3,3,2,1,3,1,2,1,2,1504,2462,
scooby_state_403083|55|1 896,1,56,3,7,1,3,2,2,2,1,2,1,2,1455,2434,
scooby_state_402dc7|62|-1 12,1,0,1,0,0,2,0,2,0,0,466,1949,0,0,2433,
scooby_state_402dcb|2|-3 0,0,0,0,0,0,1,3,0,3,1,4,2395,0,0,2407,
scooby_state_403083|26|1 992,0,52,4,1,1,1,1,1,0,0,0,0,2,1351,2406,
scooby_state_402dcb|5|-3 0,2,0,0,0,0,0,0,0,0,0,5,2381,1,0,2389,
scooby_state_403083|36|1 994,4,57,5,0,4,1,2,4,1,1,3,2,1,1296,2375,
scooby_state_403083|48|1 959,2,52,2,3,3,6,6,3,5,6,5,4,1,1231,2288,
scooby_state_403083|7|1 844,0,57,5,1,3,3,0,1,3,1,3,1,2,1342,2266,
scooby_state_402dcb|8|-3 1,0,0,1,0,1,1,0,0,0,0,5,2253,0,0,2262,
scooby_state_402dcb|4|4 37,0,0,0,0,0,0,0,0,0,0,2,2218,1,2,2260,
scooby_state_402dcb|0|-7 1,1,1,0,1,2,0,0,0,1,0,0,2247,0,1,2255,
scooby_state_402dcb|6|-3 0,1,0,0,0,0,2,0,0,0,0,1,2249,0,0,2253,
scooby_state_402dcb|4|-3 0,1,0,0,0,0,0,1,0,2,0,23,2209,0,0,2236,
scooby_state_402dcb|6|4 34,0,0,0,0,1,1,0,0,0,0,1,2180,0,0,2217,
scooby_state_402dcb|7|-3 0,0,0,1,2,0,0,0,0,1,1,21,2149,1,1,2177,
scooby_state_402dcb|58|-3 0,1,0,0,1,0,0,1,0,0,0,5,2064,1,0,2073,
scooby_state_402dcb|63|1 0,0,1,0,0,0,0,1,1,3,1,1,2061,1,0,2070,
scooby_state_403083|51|1 856,0,81,1,1,0,0,0,0,1,0,2,0,0,1125,2067,
scooby_state_402dc7|61|-1 8,0,0,1,1,0,1,2,0,0,0,389,1636,0,0,2038,
scooby_state_403083|42|1 1068,2,54,3,7,5,3,3,0,2,3,4,3,1,874,2032,
scooby_state_403083|13|1 823,1,78,2,1,0,0,1,2,0,0,0,2,1,1099,2010,
scooby_state_402dcb|2|-7 0,0,0,0,0,0,0,0,0,0,0,0,1995,1,1,1997,
scooby_state_402dcb|15|-3 1,0,0,0,2,1,0,0,0,0,0,4,1981,0,0,1989,
scooby_state_402dcb|11|-3 0,0,1,0,0,0,0,1,0,0,0,9,1973,1,0,1985,
scooby_state_402dc7|29|-1 12,0,1,1,0,0,0,0,0,0,0,406,1562,1,1,1984,
scooby_state_402dc7|60|-1 15,1,0,2,0,0,0,1,1,1,0,371,1578,0,0,1970,
scooby_state_402dcb|61|1 0,1,0,2,3,2,0,1,0,0,0,3,1954,1,0,1967,
scooby_state_402dcb|59|-3 2,0,0,1,0,0,0,0,1,2,0,5,1946,0,0,1957,
scooby_state_402dc7|62|0 1,2,0,0,0,0,0,0,0,1,0,276,1669,0,0,1949,
scooby_state_402dcb|5|4 9,0,1,0,0,0,0,0,0,1,0,1,1934,0,0,1946,
scooby_state_402dcb|10|-3 1,0,0,1,0,0,0,0,0,0,0,8,1929,0,0,1939,
scooby_state_402dc7|47|-1 12,0,0,0,0,0,0,0,0,0,0,363,1557,0,0,1932,
scooby_state_402dcb|1|-7 0,1,0,1,0,0,0,0,0,2,0,0,1923,1,0,1928,
scooby_state_402dcb|3|-7 0,1,0,0,0,2,0,0,0,0,1,0,1908,0,1,1913,
scooby_state_402dc7|7|-1 13,1,1,0,0,0,0,0,1,0,0,378,1502,0,0,1896,
scooby_state_402dc7|45|-1 12,1,1,0,0,1,0,0,0,1,0,389,1487,0,0,1892,
scooby_state_403083|54|1 905,2,56,3,1,2,3,2,3,3,1,3,3,3,899,1889,
scooby_state_402dc7|13|-1 14,0,0,0,0,0,1,0,0,1,0,356,1515,0,0,1887,
scooby_state_402dc7|1|-1 14,1,1,0,0,0,0,1,0,0,0,372,1492,0,0,1881,
scooby_state_402dcb|9|-3 1,0,1,1,1,0,0,0,0,0,2,2,1850,0,0,1858,
scooby_state_402dc7|54|-1 11,0,0,1,0,1,0,0,1,0,0,364,1474,0,0,1852,
scooby_state_402dc7|49|-1 10,0,0,0,1,0,1,0,0,1,0,394,1441,0,0,1848,
scooby_state_402dcb|14|-3 0,0,1,1,0,1,0,0,0,0,1,15,1819,0,0,1838,
scooby_state_402dc7|34|-2 1,1,0,1,0,0,0,0,0,1,0,290,1542,1,0,1837,
scooby_state_403083|45|1 843,3,59,3,3,1,2,1,0,4,1,3,0,1,909,1833,
scooby_state_403083|47|1 827,0,54,0,0,1,1,1,2,0,0,2,1,2,941,1832,
scooby_state_403083|61|1 826,0,62,4,1,0,0,0,0,1,0,3,0,0,931,1828,
scooby_state_402dc7|33|-1 11,1,2,0,0,0,0,0,0,1,0,382,1429,0,0,1826,
scooby_state_403083|49|1 851,0,63,1,1,0,0,1,1,1,1,0,2,0,899,1821,
scooby_state_402dcb|31|-3 1,0,1,0,0,0,0,0,0,0,0,7,1803,0,0,1812,
scooby_state_403083|11|1 793,1,52,2,0,0,1,0,1,0,0,1,0,2,951,1804,
scooby_state_403083|63|1 818,1,66,2,1,1,0,0,0,1,0,0,1,1,909,1801,
scooby_state_402dcb|12|11 3,0,0,0,0,0,0,0,0,0,0,0,1797,0,0,1800,
scooby_state_402dc7|15|-1 10,1,0,0,1,0,1,0,0,0,0,363,1415,0,1,1792,
scooby_state_402dcb|62|1 3,2,2,0,0,0,0,2,0,0,0,0,1778,0,1,1788,
scooby_state_402dc7|17|-1 12,0,1,1,0,0,1,0,0,0,0,365,1406,0,0,1786,
scooby_state_402dcb|51|-3 0,0,0,0,0,0,0,1,0,0,0,14,1769,0,2,1786,
scooby_state_402dc7|2|-2 0,1,0,0,0,1,0,0,0,2,0,267,1512,0,0,1783,
scooby_state_403083|44|1 928,1,46,2,1,0,1,2,0,1,1,0,0,3,793,1779,
scooby_state_402dc7|57|-1 12,0,0,0,0,0,0,0,0,0,1,360,1405,0,0,1778,
scooby_state_402dcb|13|11 15,0,1,1,0,1,0,0,0,0,1,0,1756,0,0,1775,
scooby_state_403083|10|1 939,1,42,0,0,0,0,1,2,1,1,0,1,3,783,1774,
scooby_state_402dc7|18|-2 1,2,1,0,0,1,0,0,0,0,0,259,1507,0,0,1771,
scooby_state_402dc7|55|-1 13,0,1,0,0,0,0,1,0,0,0,377,1375,0,1,1768,
scooby_state_402dc7|28|-1 13,0,0,1,0,0,0,0,0,0,0,379,1370,1,0,1764,
scooby_state_403083|8|1 917,1,41,0,2,2,1,1,1,0,0,1,1,0,796,1764,
scooby_state_402dc7|25|-2 1,0,0,0,0,0,0,1,0,0,0,290,1467,0,1,1760,
scooby_state_403083|58|1 899,1,62,1,2,0,1,0,1,1,0,0,1,1,787,1757,
scooby_state_403083|19|1 806,0,55,3,1,0,0,1,1,0,0,1,2,1,886,1757,
scooby_state_403083|60|1 877,2,48,0,1,0,1,0,0,0,0,0,2,0,824,1755,
scooby_state_403083|24|1 864,0,44,2,2,5,2,0,1,2,2,2,2,0,825,1753,
scooby_state_402dc7|30|-1 13,2,1,0,0,1,0,0,0,0,0,361,1370,1,0,1749,
scooby_state_402dcb|17|-3 0,0,0,0,0,0,0,0,0,1,0,9,1738,0,0,1748,
scooby_state_402dcb|26|-3 0,1,1,0,1,0,0,0,0,0,1,3,1736,0,0,1743,
scooby_state_403083|52|1 890,0,51,0,2,3,2,3,2,1,0,1,0,1,785,1741,
scooby_state_403083|9|1 880,1,57,1,0,4,4,2,3,4,2,1,1,2,776,1738,
scooby_state_403083|23|1 801,1,63,2,0,1,2,1,0,1,2,0,0,0,861,1735,
scooby_state_402dcb|54|-3 0,0,0,0,1,0,0,1,0,1,0,10,1719,0,0,1732,
scooby_state_403083|12|1 927,1,55,1,0,0,1,0,4,0,1,2,0,1,737,1730,
scooby_state_402dc7|58|-1 12,1,0,0,1,0,0,0,0,0,0,346,1364,0,0,1724,
scooby_state_402dc7|31|-1 17,0,0,0,0,1,0,0,0,0,0,361,1344,0,0,1723,
scooby_state_402dcb|60|-3 0,0,0,0,0,0,0,1,0,1,0,6,1711,0,1,1720,
scooby_state_402dcb|4|-7 0,0,0,1,1,0,0,0,0,0,0,0,1716,0,0,1718,
scooby_state_403083|50|1 851,2,55,2,0,0,0,2,1,1,1,0,1,2,794,1712,
scooby_state_403083|30|1 882,2,43,4,1,1,1,0,2,0,2,2,4,2,758,1704,
scooby_state_403083|14|1 884,2,52,0,0,0,1,0,0,0,0,1,1,0,757,1698,
scooby_state_402dc7|44|-1 13,1,0,1,1,0,0,0,0,0,1,362,1316,1,0,1696,
scooby_state_403083|5|1 813,0,57,1,1,0,2,0,0,0,0,0,0,2,819,1695,
scooby_state_403083|39|1 792,1,51,1,1,0,0,0,1,0,1,1,0,0,845,1694,
scooby_state_403083|43|1 845,5,58,2,1,3,1,2,2,2,2,1,1,4,764,1693,
scooby_state_403083|38|1 907,1,48,1,2,0,1,1,0,0,0,0,2,1,728,1692,
scooby_state_402dc7|60|-2 0,1,0,1,1,0,1,0,0,1,1,269,1415,1,0,1691,
scooby_state_402dc7|9|-2 1,0,0,0,0,0,0,1,0,0,0,273,1409,0,0,1684,
scooby_state_402dcb|30|-3 1,0,0,0,0,0,1,0,0,0,0,10,1672,0,0,1684,
scooby_state_403083|4|1 890,1,47,3,1,1,1,2,1,2,3,3,1,1,727,1684,
scooby_state_402dc7|57|-2 0,0,0,0,0,0,0,0,0,1,0,279,1403,0,0,1683,
scooby_state_403083|40|1 889,2,47,0,0,0,0,0,1,0,1,2,0,0,739,1681,
scooby_state_403083|35|1 845,0,54,1,0,1,1,0,0,0,0,0,0,1,778,1681,
scooby_state_402dcb|12|-3 0,0,0,0,0,1,0,0,1,0,0,2,1675,0,0,1679,
scooby_state_403083|37|1 841,2,51,1,1,0,0,0,0,0,1,1,0,0,780,1678,
scooby_state_403083|41|1 858,2,49,0,2,1,1,2,0,0,0,1,2,1,752,1671,
scooby_state_403083|32|1 878,0,42,0,0,0,1,1,0,0,0,0,1,0,748,1671,
scooby_state_403083|18|1 829,1,51,3,3,0,1,0,1,1,0,1,1,0,775,1667,
scooby_state_403083|17|1 836,1,63,2,2,0,0,0,0,0,1,1,1,0,754,1661,
scooby_state_403083|15|1 822,0,51,2,3,1,1,0,0,0,0,0,0,0,778,1658,
scooby_state_403083|2|1 865,0,55,4,0,3,1,0,2,1,1,1,2,1,721,1657,
scooby_state_402dcb|53|-3 1,1,1,0,0,0,0,0,0,0,0,3,1651,0,0,1657,
scooby_state_403083|1|1 794,0,51,0,1,2,0,1,0,0,0,0,0,0,805,1654,
scooby_state_402dc7|46|-1 10,0,0,0,1,0,0,1,0,0,1,342,1296,0,0,1651,
scooby_state_403083|16|1 857,2,38,1,2,1,0,0,0,0,1,0,1,1,739,1643,
scooby_state_403083|6|1 899,0,48,2,0,1,0,1,0,0,1,2,1,1,686,1642,
scooby_state_403083|3|1 780,0,55,0,1,1,0,0,0,1,0,1,2,0,801,1642,
scooby_state_403083|57|1 832,2,52,0,1,0,1,0,2,1,3,1,1,0,745,1641,
scooby_state_403083|46|1 895,0,44,0,1,1,1,1,0,1,0,0,0,3,692,1639,
scooby_state_403083|59|1 802,2,61,1,2,1,1,1,1,1,0,1,1,1,763,1639,
scooby_state_402dc7|52|-1 14,0,0,0,0,0,0,0,0,0,0,336,1286,0,0,1636,
scooby_state_402dcb|60|1 0,1,0,0,0,0,0,2,3,2,0,0,1625,0,0,1633,
scooby_state_403083|28|1 872,0,57,0,0,1,1,1,0,1,0,0,2,1,697,1633,
scooby_state_403083|21|1 808,1,56,1,3,0,5,1,1,1,1,3,5,0,746,1632,
scooby_state_403083|62|1 828,0,51,1,2,2,1,1,1,2,0,0,0,2,739,1630,
scooby_state_402dc7|22|-1 9,0,0,0,0,0,1,0,1,0,1,320,1293,0,0,1625,
scooby_state_402dc7|36|-1 11,0,2,0,0,1,0,1,0,0,0,364,1242,0,0,1621,
scooby_state_402dcb|22|-3 0,0,0,0,0,0,0,0,0,0,0,1,1618,0,0,1619,
scooby_state_402dc7|50|-2 0,0,0,0,1,0,0,0,0,0,0,269,1349,0,0,1619,
scooby_state_402dc7|39|-1 13,0,0,0,0,1,0,0,0,0,1,348,1252,1,0,1616,
scooby_state_402dcb|44|-3 0,2,0,0,0,0,0,0,0,2,2,11,1596,0,0,1613,
scooby_state_402dc7|12|-1 10,1,0,0,0,1,0,0,0,0,1,343,1254,0,0,1610,
scooby_state_402dcb|11|11 3,0,0,0,0,0,0,0,1,0,0,0,1605,0,0,1609,
scooby_state_402dc7|27|-1 11,0,0,0,1,0,0,0,0,0,0,333,1262,0,0,1607,
scooby_state_402dcb|9|8 8,0,0,0,0,0,0,0,2,0,0,0,1595,1,0,1606,
scooby_state_402dcb|37|-3 0,0,1,0,0,0,0,0,0,0,0,7,1594,0,0,1602,
scooby_state_402dcb|43|-3 0,0,0,1,1,0,0,0,0,0,0,3,1596,0,0,1601,
scooby_state_402dc7|25|-1 11,0,0,0,0,1,0,0,1,0,0,346,1240,0,0,1599,
scooby_state_403083|56|1 878,0,47,2,0,2,1,0,1,1,0,0,1,0,666,1599,
scooby_state_403083|25|1 794,1,50,0,1,1,2,0,0,1,1,0,0,1,745,1597,
scooby_state_402dcb|25|-3 0,0,0,1,1,0,0,0,0,0,0,5,1589,0,0,1596,
scooby_state_403083|53|1 815,0,55,0,0,0,1,0,0,0,0,1,0,1,720,1593,
scooby_state_403083|22|1 854,0,48,0,1,0,1,1,1,1,0,0,0,0,685,1592,
scooby_state_402dcb|24|-3 1,0,0,0,0,1,0,0,0,0,0,8,1574,0,1,1585,
scooby_state_403083|34|1 861,0,44,1,1,0,0,0,1,0,1,0,1,1,673,1584,
scooby_state_402dc7|41|-1 8,0,1,2,0,0,1,1,0,0,0,334,1236,0,0,1583,
scooby_state_402dcb|33|-3 0,0,0,0,0,0,0,0,0,0,0,3,1580,0,0,1583,
scooby_state_403083|20|1 847,0,48,0,1,1,0,0,1,0,2,1,0,1,679,1581,
scooby_state_403083|31|1 805,2,56,0,1,2,2,0,0,0,0,1,2,0,707,1578,
scooby_state_402dc7|14|-2 1,0,0,0,0,0,0,0,0,0,0,224,1348,0,1,1574,
scooby_state_402dc7|59|-2 1,0,0,0,1,0,0,0,1,1,0,252,1314,0,0,1570,
scooby_state_403083|29|1 810,0,52,3,1,2,0,0,0,0,1,2,2,1,695,1569,
scooby_state_402dc7|43|-1 10,0,1,0,0,0,0,0,0,0,0,337,1218,0,0,1566,
scooby_state_402dcb|38|-3 0,1,0,0,0,0,0,0,1,0,0,4,1558,0,0,1564,
scooby_state_402dcb|36|-3 0,0,0,0,0,1,0,1,0,0,1,1,1553,1,0,1558,
scooby_state_402dcb|52|-3 1,0,0,0,0,1,0,0,0,0,0,6,1548,0,0,1556,
scooby_state_402dcb|46|-3 0,0,0,0,0,0,0,1,0,1,0,2,1542,1,0,1547,
scooby_state_402dcb|47|-3 0,0,0,1,0,0,0,0,0,1,0,9,1536,0,0,1547,
scooby_state_402dc7|14|-1 11,0,0,1,1,0,0,0,0,0,0,320,1213,0,0,1546,
scooby_state_402dcb|41|-3 0,0,0,0,0,0,0,0,0,0,0,7,1539,0,0,1546,
scooby_state_402dc7|9|-1 11,0,0,1,0,0,0,0,0,0,0,312,1221,1,0,1546,
scooby_state_402dcb|13|-3 2,0,0,0,1,0,0,2,0,0,0,8,1531,0,0,1544,
scooby_state_402dc7|61|-2 0,0,0,1,0,1,0,0,0,0,1,260,1278,0,1,1542,
scooby_state_402dcb|10|8 25,0,0,0,1,0,1,1,0,0,0,1,1509,0,0,1538,
scooby_state_402dc7|11|-2 1,1,0,0,0,0,1,1,0,0,0,239,1292,0,0,1535,
scooby_state_402dc7|23|-1 10,0,0,1,0,0,0,1,0,0,1,356,1164,0,0,1533,
scooby_state_402dcb|8|8 22,0,0,0,0,0,0,0,0,0,0,0,1495,0,0,1517,
scooby_state_402dc7|46|-2 0,1,0,0,0,0,0,1,1,0,0,262,1249,0,2,1516,
scooby_state_402dc7|58|-2 0,0,0,0,0,0,0,2,0,0,1,271,1241,0,0,1515,
scooby_state_402dc7|39|-2 1,1,1,0,0,0,0,1,0,0,0,264,1244,0,0,1512,
scooby_state_402dc7|54|-2 0,0,0,0,0,1,0,0,0,0,1,260,1249,0,0,1511,
scooby_state_402dc7|49|-2 1,0,0,0,0,1,0,0,0,0,0,228,1279,0,0,1509,
scooby_state_402dc7|21|-2 0,0,0,0,0,1,0,1,1,2,1,290,1210,1,0,1507,
scooby_state_402dcb|63|8 11,1,1,0,0,0,0,0,1,0,1,0,1483,0,0,1498,
scooby_state_402dc7|26|-1 13,1,0,0,1,0,0,0,0,0,0,308,1174,1,0,1498,
scooby_state_403083|27|1 781,1,53,0,0,3,2,1,2,0,0,1,0,1,652,1497,
scooby_state_402dcb|19|-3 0,1,0,0,0,0,1,0,1,0,0,0,1493,0,0,1496,
scooby_state_402dc7|10|-1 11,0,1,0,0,1,0,1,0,0,0,342,1138,0,0,1494,
scooby_state_402dcb|21|-3 0,0,1,0,0,0,0,0,0,0,0,5,1485,0,0,1491,
scooby_state_402dc7|36|-2 0,1,1,0,1,0,0,0,0,1,0,237,1250,0,0,1491,
scooby_state_402dc7|20|-1 10,1,0,0,1,0,0,0,1,0,0,336,1138,0,0,1487,
scooby_state_402dc7|45|-2 0,0,1,1,0,2,0,0,1,1,0,268,1213,0,0,1487,
scooby_state_402dc7|42|-1 10,0,3,0,0,0,0,0,0,0,0,331,1139,0,1,1484,
scooby_state_402dc7|0|-2 0,1,3,0,0,0,0,0,0,1,0,275,1203,0,0,1483,
scooby_state_402dc7|5|-2 1,0,0,0,1,1,0,1,0,1,1,268,1208,1,0,1483,
scooby_state_402dcb|57|-3 0,0,1,0,0,0,0,0,0,0,0,7,1467,1,1,1477,
scooby_state_402dc7|6|-1 12,0,0,0,0,0,0,0,0,1,0,298,1165,0,1,1477,
scooby_state_402dc7|48|-1 10,2,0,1,1,0,0,1,0,0,0,323,1136,1,0,1475,
scooby_state_402dc7|0|-1 11,0,0,0,1,1,1,0,0,0,0,318,1125,0,1,1458,
scooby_state_402dcb|55|-3 0,1,0,1,0,0,1,1,0,0,0,8,1444,0,1,1457,
scooby_state_402dcb|40|-3 0,0,0,1,0,1,0,0,0,0,0,6,1442,0,1,1451,
scooby_state_402dcb|27|-3 0,1,0,0,0,0,0,1,0,0,1,9,1434,0,0,1446,
scooby_state_402dcb|7|4 23,0,0,1,1,0,0,0,0,0,0,9,1409,1,1,1445,
scooby_state_402dc7|3|-2 1,0,0,1,0,0,0,0,0,0,1,233,1208,0,0,1444,
scooby_state_402dc7|30|-2 1,0,0,0,0,0,0,0,0,0,0,224,1217,0,0,1442,
scooby_state_402dc7|21|-1 11,0,1,0,0,0,0,1,0,0,0,304,1119,0,0,1436,
scooby_state_402dcb|35|-3 0,0,0,1,1,1,0,2,0,0,0,8,1422,0,0,1435,
scooby_state_402dcb|56|-3 0,0,0,0,0,0,0,0,0,0,0,2,1430,0,0,1432,
scooby_state_402dcb|62|4 24,2,0,0,0,0,0,0,0,0,0,2,1400,0,0,1428,
scooby_state_402dc7|51|-2 1,0,0,0,0,2,0,1,0,2,0,228,1193,0,1,1428,
scooby_state_402dc7|38|-1 8,0,0,0,0,1,0,1,0,0,0,311,1106,0,1,1428,
scooby_state_402dc7|41|-2 1,0,2,0,0,1,0,1,0,1,0,224,1191,1,0,1422,
scooby_state_402dc7|16|-1 14,1,0,2,0,2,0,1,1,0,0,321,1071,0,0,1413,
scooby_state_402dc7|4|-2 0,0,0,0,0,0,0,0,0,0,0,241,1169,0,0,1410,
scooby_state_402dc7|56|-1 10,0,0,0,0,0,0,0,0,0,0,315,1081,1,0,1407,
scooby_state_402dc7|37|-2 0,0,1,0,0,0,0,0,0,0,0,249,1152,0,0,1402,
scooby_state_402dcb|61|11 11,0,0,0,1,0,0,0,0,1,0,0,1387,0,0,1400,
scooby_state_402dcb|34|-3 1,0,0,0,0,0,0,0,0,0,0,6,1387,0,0,1394,
scooby_state_402dc7|22|-2 0,0,0,0,0,1,0,0,0,0,1,235,1154,0,0,1391,
scooby_state_402dcb|39|-3 0,0,0,0,0,1,1,0,0,0,0,2,1381,0,0,1385,
scooby_state_402dc7|35|-2 3,0,0,1,0,0,2,0,0,1,0,224,1152,0,1,1384,
scooby_state_402e18|54|0 169,0,0,0,1,0,0,0,0,1,1,184,1026,0,0,1382,
scooby_state_402dc7|55|-2 1,0,0,0,1,1,0,0,0,0,0,232,1147,0,0,1382,
scooby_state_402dc7|16|-2 1,1,0,0,0,0,1,1,1,0,0,246,1122,0,0,1373,
scooby_state_402dc7|20|-2 1,1,0,1,1,0,0,1,2,0,1,225,1140,0,0,1373,
scooby_state_402dc7|42|-2 0,1,0,1,1,1,0,0,0,0,0,261,1101,0,0,1366,
scooby_state_402dcb|50|-3 2,0,0,0,0,0,0,0,0,0,0,7,1356,0,0,1365,
scooby_state_402dcb|57|1 0,0,0,0,0,1,2,2,1,0,0,1,1357,1,0,1365,
scooby_state_402dcb|42|-3 0,0,0,0,0,0,1,0,1,0,0,4,1358,0,0,1364,
scooby_state_402dc7|31|-2 0,0,0,0,1,0,0,0,0,0,0,241,1112,0,0,1354,
scooby_state_402dc7|32|-2 0,0,0,0,0,0,0,0,0,0,0,195,1159,0,0,1354,
scooby_state_402dc7|24|-1 10,0,0,1,1,0,1,0,0,1,1,304,1034,0,0,1353,
scooby_state_402dcb|29|-3 0,0,2,0,0,0,0,1,0,0,0,2,1347,0,0,1352,
scooby_state_402dcb|49|-3 2,0,0,1,1,0,0,1,0,0,1,4,1332,0,0,1342,
scooby_state_402dc7|12|-2 0,0,0,0,1,0,0,0,0,0,0,257,1084,0,0,1342,
scooby_state_402dc7|24|-2 0,1,1,0,0,0,1,0,0,0,0,210,1123,0,1,1337,
scooby_state_402dc7|40|-1 9,0,0,0,1,1,0,0,0,0,1,315,1008,0,1,1336,
scooby_state_402dc7|4|-1 11,0,1,0,0,0,0,0,0,0,0,317,1007,0,0,1336,
scooby_state_402dcb|28|-3 1,1,0,0,0,0,0,1,0,1,0,6,1323,0,0,1333,
scooby_state_402dcb|18|-3 0,0,0,0,0,1,1,0,0,1,0,7,1317,0,1,1328,
scooby_state_402dcb|23|-3 0,0,0,0,0,0,0,0,1,1,1,4,1320,0,0,1327,
scooby_state_402dcb|16|-3 0,0,0,0,1,0,0,0,0,0,0,1,1324,0,0,1326,
scooby_state_402dc7|38|-2 0,0,0,0,1,0,0,2,0,0,1,216,1104,0,0,1324,
scooby_state_402dc7|59|-1 11,0,0,0,0,0,0,0,0,0,0,321,988,1,0,1321,
scooby_state_402dcb|57|11 12,1,1,0,0,0,0,0,0,0,0,0,1302,0,0,1316,
scooby_state_402dcb|20|-3 0,0,0,0,0,0,0,0,0,0,0,6,1310,0,0,1316,
scooby_state_402dcb|7|-7 0,0,1,0,0,0,0,0,0,0,0,0,1310,0,0,1311,
scooby_state_402dc7|48|-2 0,0,0,0,1,0,0,0,0,0,0,209,1086,0,0,1296,
scooby_state_402dc7|53|-1 8,1,0,0,1,0,0,0,0,0,0,304,973,0,0,1287,
scooby_state_402dc7|37|-1 14,0,0,1,0,1,1,1,0,0,1,309,954,0,0,1282,
scooby_state_402dcb|35|1 2,2,3,0,0,0,0,0,0,1,0,2,1270,2,0,1282,
scooby_state_402dc7|50|-1 9,1,0,0,0,1,0,0,0,0,0,303,961,1,0,1276,
scooby_state_40307e|0|0 1273,0,0,0,0,0,0,0,0,0,0,2,0,0,0,1275,
scooby_state_402dc7|43|-2 2,1,0,0,0,0,0,0,1,1,0,205,1062,1,1,1274,
scooby_state_402dc7|8|-1 11,0,0,0,0,0,0,0,0,1,0,302,957,0,0,1271,
scooby_state_402dc7|47|-2 1,0,0,0,1,1,0,0,0,0,1,249,1014,0,0,1267,
scooby_state_402dcb|48|-3 0,0,0,0,0,0,0,0,0,0,0,3,1263,0,0,1266,
scooby_state_402dc7|32|-1 15,0,0,0,0,0,0,0,1,0,1,282,965,0,0,1264,
scooby_state_402dcb|32|-3 0,0,0,0,0,0,0,0,0,0,0,3,1260,0,1,1264,
scooby_state_402dcb|58|1 0,0,2,2,3,0,0,1,0,0,1,0,1251,0,0,1260,
scooby_state_402dc7|18|-1 16,0,0,0,1,0,1,0,1,0,0,302,933,0,0,1254,
scooby_state_402dcb|51|-7 0,0,0,0,0,1,0,0,0,0,0,0,1251,0,0,1252,
scooby_state_402dcb|59|1 2,0,0,0,0,0,0,0,0,0,0,2,1243,1,0,1248,
scooby_state_402dc7|26|-2 0,1,0,0,1,0,1,1,0,0,1,213,1029,0,0,1247,
scooby_state_402dc7|2|-1 11,0,0,0,1,0,1,0,0,0,0,305,926,0,0,1244,
scooby_state_402dc7|19|-2 0,0,0,0,0,0,0,0,0,0,0,201,1041,1,0,1243,
scooby_state_402dcb|5|-7 0,0,0,0,0,0,0,0,0,1,0,0,1234,0,0,1235,
scooby_state_402dc7|27|-2 0,0,1,0,0,0,0,0,0,0,0,179,1052,0,0,1232,
scooby_state_402dc7|34|-1 13,0,0,1,0,0,0,0,0,0,0,276,937,0,0,1227,
scooby_state_402dc7|5|-1 13,0,0,0,0,0,0,1,0,0,0,298,911,0,0,1223,
scooby_state_402dcb|47|-7 0,0,1,0,0,0,0,0,0,0,0,0,1220,0,0,1221,
scooby_state_402dc7|33|-2 0,0,0,0,0,1,0,1,1,0,0,221,992,0,0,1216,
scooby_state_402dc7|53|-2 0,0,0,0,0,0,1,0,0,0,0,204,997,0,0,1202,
scooby_state_402dcb|34|11 6,0,0,0,1,0,0,0,0,0,0,0,1189,0,0,1196,
scooby_state_402dcb|0|-4 1,0,1,1,0,0,0,0,0,0,0,0,1192,0,0,1195,
scooby_state_402dcb|4|1 0,0,1,2,4,0,0,0,0,0,0,0,1187,0,0,1194,
scooby_state_402dc7|23|-2 0,0,0,0,0,1,1,0,0,0,0,189,1003,0,0,1194,
scooby_state_402dc3|52|-11 1184,1,1,0,0,0,1,1,0,0,0,0,0,0,0,1188,
scooby_state_402dc7|3|-1 9,0,0,1,0,0,0,0,0,1,0,315,858,0,0,1184,
scooby_state_402dcb|14|14 96,0,0,0,0,0,0,0,0,0,0,0,1083,0,0,1179,
scooby_state_402dcb|10|-7 0,0,0,0,1,0,0,0,0,0,0,0,1178,0,0,1179,
scooby_state_402dc7|10|-2 0,0,0,0,0,1,1,0,0,0,0,200,975,0,0,1177,
scooby_state_402dcb|6|-7 1,0,1,0,0,0,0,0,0,1,0,0,1170,0,0,1173,
scooby_state_402dc7|13|-2 0,1,0,0,0,1,0,0,1,0,0,227,937,0,0,1167,
scooby_state_402dcb|62|8 17,0,0,0,1,0,1,0,0,0,0,0,1140,0,0,1159,
scooby_state_402dcb|61|4 21,1,1,0,0,0,0,0,0,0,0,2,1134,0,0,1159,
scooby_state_402dc3|49|-11 1152,0,0,0,0,0,0,0,0,0,0,0,0,1,1,1154,
scooby_state_402dc7|11|-1 8,0,0,0,0,0,1,0,1,1,1,297,841,0,0,1150,
scooby_state_402dc3|20|-11 1149,0,0,0,0,0,0,0,0,0,0,0,1,0,0,1150,
scooby_state_402dc7|1|-2 0,1,0,0,0,0,1,1,3,0,0,201,940,0,1,1148,
scooby_state_402dc7|40|-2 1,0,0,0,0,0,0,1,0,0,0,194,948,0,0,1144,
scooby_state_402dcb|8|-7 0,1,0,0,0,0,0,0,0,0,0,0,1140,0,0,1141,
scooby_state_402dc7|56|-2 1,0,1,1,1,0,0,0,0,0,0,179,954,0,0,1137,
scooby_state_402dcb|51|1 0,0,1,2,3,1,1,0,0,0,0,0,1128,0,0,1136,
scooby_state_402dc7|29|-2 0,1,0,0,0,0,0,0,0,0,0,202,929,0,0,1132,
scooby_state_402dcb|45|-3 0,0,0,0,0,0,0,0,0,0,0,6,1122,0,0,1128,
scooby_state_402dc7|7|-2 1,0,0,0,0,0,0,0,0,0,0,210,914,0,0,1125,
scooby_state_402dcb|60|7 29,0,0,1,1,0,0,0,0,0,0,0,1086,1,1,1119,
scooby_state_402dc7|15|-2 0,1,0,1,1,0,0,1,0,1,0,193,919,1,0,1118,
scooby_state_402dcb|56|1 0,0,0,0,0,0,0,0,0,2,2,2,1107,1,0,1114,
scooby_state_402dcb|20|18 770,0,0,0,0,1,0,1,0,0,0,1,338,0,0,1111,
scooby_state_402dc3|36|-11 1103,1,0,0,0,0,0,0,0,0,0,0,0,0,2,1106,
scooby_state_402dcb|9|-7 0,0,0,1,0,1,0,0,0,0,0,0,1097,0,0,1099,
scooby_state_402dc7|8|-2 0,0,0,0,0,0,0,0,1,0,0,175,921,1,0,1098,
scooby_state_402dc7|17|-2 0,0,1,0,1,0,1,1,0,0,0,204,886,0,0,1094,
scooby_state_402dcb|17|14 95,0,0,0,0,1,0,0,0,0,0,0,995,1,1,1093,
scooby_state_402dcb|63|4 4,0,0,0,0,0,0,0,0,0,0,1,1082,0,0,1087,
scooby_state_402dcb|10|7 33,1,0,0,0,0,0,1,0,0,0,0,1048,0,0,1083,
scooby_state_402dcb|16|1 0,0,0,0,0,0,0,1,3,2,1,0,1073,0,0,1080,
scooby_state_402dcb|53|1 1,0,0,0,0,0,0,0,2,2,2,0,1069,0,0,1076,
scooby_state_402dcb|9|7 12,0,1,0,0,0,0,0,0,0,0,0,1061,0,1,1075,
scooby_state_402dcb|32|11 1,0,0,0,1,0,0,0,0,1,0,0,1070,0,0,1073,
scooby_state_402dcb|19|1 0,0,0,1,2,0,0,0,0,3,2,1,1063,0,0,1072,
scooby_state_403083|0|0 675,2,39,1,0,2,1,1,0,2,0,27,78,3,241,1072,
scooby_state_402dcb|6|1 0,0,0,0,0,1,0,2,3,2,0,0,1048,0,0,1056,
scooby_state_402dcb|61|8 29,0,0,0,0,1,0,0,0,0,0,0,1021,0,0,1051,
scooby_state_402dcb|11|-7 0,0,0,0,0,0,0,0,0,0,0,0,1049,0,0,1049,
scooby_state_402dcb|9|1 0,1,0,0,0,0,0,0,1,2,2,1,1039,0,1,1047,
scooby_state_402dcb|19|-7 1,0,0,0,0,0,0,0,0,0,1,0,1044,0,0,1046,
scooby_state_402dcb|12|-7 0,0,0,1,0,0,1,0,0,0,0,0,1041,0,0,1043,
scooby_state_402dc3|15|-11 1036,1,0,0,0,1,0,2,0,0,0,1,0,0,0,1041,
scooby_state_402dcb|13|-7 1,0,0,0,0,0,0,1,0,1,0,0,1037,0,0,1040,
scooby_state_402dcb|14|11 5,1,0,0,0,1,0,1,0,0,1,0,1029,0,0,1038,
scooby_state_402dc7|6|-2 1,1,0,0,0,1,0,0,0,1,0,201,832,0,0,1037,
scooby_state_402dcb|62|11 11,0,0,1,0,0,0,0,0,0,1,0,1022,0,0,1035,
scooby_state_402dcb|43|1 0,0,0,0,0,0,0,1,2,3,2,0,1026,0,0,1034,
scooby_state_402dcb|27|1 0,0,2,0,1,2,2,1,0,0,0,0,1025,0,0,1033,
scooby_state_402dcb|46|1 0,0,0,0,0,0,0,0,0,2,2,2,1025,0,0,1031,
scooby_state_402dc7|35|-1 10,0,0,1,0,0,0,0,0,0,1,287,729,0,0,1028,
scooby_state_402dc7|51|-1 11,0,1,1,0,0,0,0,0,0,0,275,738,1,1,1028,
scooby_state_402dcb|42|1 1,3,0,0,0,0,0,0,0,1,0,1,1019,1,1,1027,
scooby_state_402dc7|19|-1 14,0,0,0,0,0,1,0,0,0,0,286,725,0,0,1026,
scooby_state_402dcb|50|11 5,0,1,2,0,0,1,0,0,0,0,0,1016,0,0,1025,
scooby_state_402dcb|40|1 0,0,0,0,0,0,2,2,2,0,0,0,1018,0,0,1024,
scooby_state_402dcb|12|1 0,0,0,0,0,0,0,0,0,0,2,2,1016,0,0,1020,
scooby_state_402dcb|0|-10 15,0,0,0,0,0,0,0,0,0,1,0,1003,0,0,1019,
scooby_state_402dcb|45|1 1,3,2,0,0,0,0,0,0,0,0,0,1012,1,0,1019,
scooby_state_402dcb|24|1 1,0,0,1,3,2,0,2,0,0,0,0,1007,0,0,1016,
scooby_state_402dcb|34|4 14,0,0,0,0,0,0,0,0,0,0,2,998,0,0,1014,
scooby_state_402dcb|15|14 83,0,1,0,0,0,1,0,1,0,1,0,925,0,0,1012,
scooby_state_402dc7|44|-2 0,0,0,0,0,1,1,0,1,0,0,177,830,0,0,1010,
scooby_state_402dcb|41|1 0,0,2,2,2,1,0,1,0,0,0,0,1002,0,0,1010,
scooby_state_402dc7|28|-2 0,2,1,0,0,0,0,0,1,1,0,163,841,0,0,1009,
scooby_state_402dcb|26|1 0,0,0,0,0,0,0,0,3,2,2,0,1002,0,0,1009,
scooby_state_402dcb|50|1 0,0,0,0,0,0,1,2,2,1,0,0,1000,0,0,1006,
scooby_state_402dcb|18|11 7,0,0,0,1,0,0,0,0,0,0,0,991,0,0,999,
scooby_state_402dcb|13|1 0,0,1,1,0,0,1,3,2,0,0,0,990,0,0,998,
scooby_state_402dcb|8|1 1,2,2,0,0,0,0,1,0,0,0,0,991,0,0,997,
scooby_state_402dcb|23|1 0,0,0,0,0,0,0,3,2,1,0,0,987,0,0,993,
scooby_state_402dcb|18|1 2,2,2,2,0,0,0,0,1,0,0,0,984,0,0,993,
scooby_state_402dc3|33|-8 988,0,0,1,0,1,0,0,0,1,0,0,0,0,0,991,
scooby_state_40307e|32|-1 987,0,0,0,0,0,0,0,1,0,0,0,0,0,1,989,
scooby_state_402dcb|52|-7 0,0,0,0,1,0,0,0,0,0,0,0,987,0,0,988,
scooby_state_402dcb|54|-7 0,0,2,0,0,0,0,0,0,0,0,0,980,0,0,982,
scooby_state_402dcb|7|7 14,1,0,2,0,0,0,0,0,0,0,0,965,0,0,982,
scooby_state_402dcb|29|1 1,0,0,0,0,0,0,1,0,1,2,2,974,0,0,981,
scooby_state_402dcb|37|1 0,1,0,0,0,2,3,1,0,0,0,0,974,0,0,981,
scooby_state_402dcb|39|1 0,0,0,0,0,0,0,0,0,0,2,2,976,0,0,980,
scooby_state_402dcb|34|1 0,0,0,1,2,2,2,0,0,0,0,0,973,0,0,980,
scooby_state_402dcb|32|1 1,1,0,0,0,0,0,0,0,0,0,2,976,0,0,980,
scooby_state_402dcb|55|1 1,2,2,1,0,0,0,0,0,0,0,0,973,0,0,979,
scooby_state_402dc3|17|-8 975,0,0,1,0,0,0,0,0,0,0,0,0,0,1,977,
scooby_state_402dcb|52|1 2,2,0,1,0,0,0,0,0,1,0,0,970,0,0,976,
scooby_state_402dc3|51|-11 974,0,0,0,0,0,0,0,0,0,0,0,0,0,0,974,
scooby_state_402dc3|39|-11 971,0,0,0,0,0,0,0,0,0,0,0,0,0,1,972,
scooby_state_402dcb|14|1 0,0,0,2,3,1,0,0,0,0,0,0,966,0,0,972,
scooby_state_402dcb|1|-4 0,0,0,0,0,0,1,0,0,0,0,0,965,0,0,966,
scooby_state_402dcb|15|1 1,2,0,0,0,0,1,0,0,0,0,1,960,0,1,966,
scooby_state_402dc7|52|-2 2,0,0,0,1,0,0,0,0,2,0,172,788,0,0,965,
scooby_state_402dcb|30|1 0,0,0,0,2,0,3,3,1,0,0,0,952,1,0,962,
scooby_state_402dcb|14|-7 0,0,0,0,0,0,1,0,0,0,0,1,960,0,0,962,
scooby_state_402dcb|10|1 0,0,0,0,0,2,2,2,0,0,0,0,955,0,0,961,
scooby_state_402dcb|11|1 1,1,2,3,1,0,0,0,0,0,0,0,950,0,1,959,
scooby_state_402dcb|19|18 559,0,0,0,0,0,0,2,0,0,0,0,396,1,0,958,
scooby_state_402dcb|54|1 0,0,0,0,2,2,2,0,1,0,0,0,949,0,0,956,
scooby_state_402dcb|16|11 2,0,0,0,0,0,0,0,1,0,0,0,952,0,0,955,
scooby_state_402dcb|61|18 670,0,0,2,0,1,1,0,0,0,0,0,279,0,0,953,
scooby_state_402dcb|7|1 0,0,0,0,3,2,1,0,1,0,0,0,946,0,0,953,
scooby_state_402dcb|46|-7 0,0,0,0,0,0,0,0,0,0,0,0,950,0,0,950,
scooby_state_402dcb|20|1 0,0,0,0,0,1,2,3,0,0,1,0,942,0,0,949,
scooby_state_402dcb|31|-7 0,0,0,0,0,1,0,1,0,0,0,0,944,0,0,946,
scooby_state_402dcb|30|-7 0,0,0,0,0,0,0,1,0,0,0,0,944,0,0,945,
scooby_state_402dcb|5|1 2,1,0,0,0,0,0,0,0,0,0,2,938,0,1,944,
scooby_state_402dcb|48|1 0,1,2,2,2,0,0,0,0,0,0,0,936,0,1,944,
scooby_state_402dcb|21|1 0,0,3,2,2,0,0,0,0,0,0,0,936,1,0,944,
scooby_state_402dcb|28|1 0,2,2,3,0,0,0,0,0,0,0,0,936,0,0,943,
scooby_state_402dcb|48|11 2,1,0,1,0,0,0,0,0,0,0,1,937,0,0,942,
scooby_state_402dcb|56|-7 0,0,0,0,0,0,0,0,0,0,0,0,935,0,0,935,
scooby_state_402dcb|28|-7 0,0,0,0,0,0,0,0,0,0,0,0,932,0,0,932,
scooby_state_402dcb|42|-7 0,0,0,0,0,1,0,0,0,0,0,0,931,0,0,932,
scooby_state_402dcb|44|-7 0,0,0,0,0,0,0,0,0,0,1,0,929,0,0,930,
scooby_state_402dcb|29|11 4,0,0,0,0,0,1,0,0,0,0,0,924,0,1,930,
scooby_state_402dcb|15|-7 0,0,0,0,0,0,0,0,0,0,1,0,927,0,0,928,
scooby_state_402dcb|60|4 5,0,0,0,0,0,0,0,1,0,0,0,921,0,0,927,
scooby_state_402dc3|33|-11 926,0,0,0,0,0,0,0,0,0,0,0,1,0,0,927,
scooby_state_402dcb|55|-7 0,1,0,0,0,2,0,0,0,0,0,0,923,0,0,926,
scooby_state_402dcb|49|1 1,0,0,0,1,0,0,0,0,0,1,3,920,0,0,926,
scooby_state_402dcb|25|1 1,2,1,0,0,0,0,0,1,0,0,0,920,0,0,925,
scooby_state_402dcb|20|-7 0,1,0,1,0,0,0,0,0,0,0,0,922,0,0,924,
scooby_state_402dcb|25|-7 0,0,0,0,0,0,0,0,0,0,0,1,922,0,0,923,
scooby_state_402dcb|48|3 0,0,0,0,0,0,0,0,1,0,0,2,916,0,0,919,
scooby_state_402dcb|42|8 10,0,0,0,0,0,0,0,0,0,0,1,907,0,0,918,
scooby_state_402dcb|47|1 0,0,0,0,0,2,2,2,0,0,0,0,912,0,0,918,
scooby_state_402dcb|33|-7 0,0,0,0,0,0,0,0,0,0,0,0,916,0,0,916,
scooby_state_402dcb|8|7 21,0,0,0,0,0,0,0,0,0,0,0,886,0,1,908,
scooby_state_402dcb|18|18 591,0,0,0,0,1,0,0,0,0,0,0,316,0,0,908,
scooby_state_40307e|35|30 907,1,0,0,0,0,0,0,0,0,0,0,0,0,0,908,
scooby_state_402dcb|31|1 0,0,1,3,2,1,0,0,0,0,0,0,899,1,0,907,
scooby_state_402dcb|38|1 0,1,3,2,0,0,0,0,0,1,0,0,895,1,0,903,
scooby_state_402dcb|2|-4 0,0,0,0,0,1,1,0,0,0,0,0,901,0,0,903,
scooby_state_402dcb|44|1 0,0,0,0,2,3,2,0,0,0,0,0,891,0,0,898,
scooby_state_402dcb|62|21 13,0,0,0,0,0,0,0,0,0,0,0,884,0,0,897,
scooby_state_402dc3|8|-11 895,0,0,0,0,0,0,0,0,0,0,0,0,0,0,895,
scooby_state_402dcb|36|1 0,0,0,0,0,1,0,0,1,2,2,1,887,0,1,895,
scooby_state_402dcb|33|1 0,0,0,0,0,0,1,2,2,2,0,0,886,1,0,894,
scooby_state_402dcb|53|-7 0,0,0,0,0,0,0,0,0,0,0,0,891,0,0,891,
scooby_state_402dcb|22|1 1,0,0,0,0,0,0,0,0,1,1,2,882,0,0,887,
scooby_state_402dcb|17|1 0,0,0,0,2,2,2,0,0,0,0,0,879,0,1,886,
scooby_state_402dc3|1|-11 881,0,0,0,0,0,0,0,0,0,0,0,0,0,1,882,
scooby_state_403012|5|-2 189,1,11,0,0,0,0,0,1,0,0,0,586,2,90,880,
scooby_state_402dcb|7|3 0,0,0,0,0,0,1,0,0,0,0,1,877,0,0,879,
scooby_state_402dc3|47|-11 869,0,0,0,0,0,0,0,0,0,0,0,0,0,0,869,
scooby_state_402dc3|4|-11 866,0,0,1,0,0,1,0,0,0,0,0,0,1,0,869,
scooby_state_402dc3|17|-11 867,1,0,0,0,0,0,0,0,0,0,0,0,0,0,868,
scooby_state_402dcb|41|-7 0,0,0,0,0,0,0,0,0,1,0,0,866,0,0,867,
scooby_state_402dc3|34|-11 865,0,0,0,1,0,0,0,0,0,0,0,0,0,0,866,
scooby_state_402dcb|16|14 84,0,0,0,0,1,0,1,0,0,0,0,780,0,0,866,
scooby_state_402dc3|38|-21 862,0,0,0,0,0,0,0,0,0,1,1,0,0,0,864,
scooby_state_402dcb|36|-7 0,0,0,0,0,0,2,1,0,0,0,0,858,0,0,861,
scooby_state_402dcb|24|-7 0,0,0,0,0,0,0,0,0,0,0,0,859,0,0,859,
scooby_state_402dcb|2|-10 15,0,0,0,0,0,0,0,0,0,0,0,844,0,0,859,
scooby_state_402dc3|38|-11 855,0,0,1,0,0,0,1,1,0,0,0,0,0,0,858,
scooby_state_402dcb|3|-10 11,0,0,0,0,0,0,0,0,0,0,0,845,0,0,856,
scooby_state_402dcb|50|-7 2,0,0,0,0,0,0,0,0,0,1,0,852,1,0,856,
scooby_state_402dcb|6|-10 6,0,0,0,0,1,0,0,0,0,0,0,848,0,0,855,
scooby_state_402dcb|18|-7 0,0,0,0,0,0,0,0,1,0,0,0,854,0,0,855,
scooby_state_402dcb|13|8 10,0,0,0,0,0,0,0,0,0,1,0,839,0,0,850,
scooby_state_402dcb|49|-7 0,0,0,0,0,0,0,0,0,0,0,0,847,0,0,847,
scooby_state_402dc3|16|-11 845,0,0,0,0,0,0,0,0,0,0,0,0,0,0,845,
scooby_state_402dc3|31|-11 840,0,0,0,0,0,0,0,0,0,0,0,0,0,1,841,
scooby_state_402dcb|9|3 0,0,0,0,0,1,0,0,0,0,0,0,838,0,0,839,
scooby_state_402dcb|63|21 9,0,0,0,0,0,0,0,0,1,0,0,825,0,0,835,
scooby_state_402dcb|57|4 11,0,0,0,0,0,0,0,0,0,0,0,824,0,0,835,
scooby_state_402dc3|29|-11 832,0,0,0,1,0,0,0,0,0,0,0,1,0,0,834,
scooby_state_402dcb|40|14 68,0,0,0,0,0,0,0,0,2,0,0,760,0,0,830,
scooby_state_402dcb|27|-7 0,1,0,0,0,0,0,0,0,0,0,0,829,0,0,830,
scooby_state_402dcb|56|4 3,0,1,0,0,0,0,0,0,0,0,1,823,0,0,828,
scooby_state_402dcb|17|-7 0,1,0,0,0,0,0,0,0,2,0,0,821,0,0,824,
scooby_state_402dc3|50|-11 820,0,0,0,0,0,1,0,0,1,0,0,0,1,0,823,
scooby_state_402dcb|60|11 6,0,0,0,0,0,0,0,0,0,0,0,817,0,0,823,
scooby_state_402dcb|63|11 4,0,0,0,0,0,0,0,0,0,0,0,818,0,0,822,
scooby_state_402dcb|5|3 0,1,0,0,0,0,0,1,1,0,0,0,816,2,1,822,
scooby_state_402dc3|37|-11 821,0,0,0,0,0,0,0,1,0,0,0,0,0,0,822,
scooby_state_402dc3|1|-21 821,0,0,0,0,0,0,0,0,0,0,0,0,0,0,821,
scooby_state_402dc3|2|-11 817,0,0,0,0,0,0,0,1,0,0,1,0,0,0,819,
scooby_state_402dcb|21|-7 0,0,1,0,1,0,0,0,0,0,0,0,814,0,0,816,
scooby_state_402dcb|43|-7 0,0,1,0,0,0,0,0,0,0,0,0,813,0,0,814,
scooby_state_402dc3|19|-11 810,0,0,0,0,0,0,0,0,0,0,0,0,0,0,810,
scooby_state_402dcb|26|-7 0,0,0,0,0,0,0,0,0,0,0,0,806,0,0,806,
scooby_state_402dc3|30|-11 804,0,0,0,0,0,0,1,0,0,0,0,0,0,0,805,
scooby_state_402dcb|54|11 6,0,0,0,0,0,0,0,1,0,0,0,796,0,0,803,
scooby_state_402dcb|16|-7 1,0,0,0,0,0,0,0,0,0,0,0,800,0,0,801,
scooby_state_402dc3|12|-11 798,0,0,1,0,1,0,0,0,0,0,0,0,0,0,800,
scooby_state_402dcb|5|-10 11,0,0,0,0,0,1,0,0,0,0,0,787,0,0,799,
scooby_state_402dcb|50|7 16,0,1,0,0,0,0,0,0,1,0,0,781,0,0,799,
scooby_state_402dcb|62|7 14,0,0,0,0,1,0,0,0,0,0,0,783,0,0,798,
scooby_state_402dc3|25|-11 794,0,0,0,0,2,0,0,0,0,0,0,0,1,0,797,
scooby_state_402dcb|45|-7 0,0,0,0,0,0,0,0,0,0,0,0,797,0,0,797,
scooby_state_402dc3|5|-11 794,0,1,0,0,0,0,1,0,0,0,0,0,0,0,796,
scooby_state_402dcb|47|8 10,0,0,0,0,0,0,0,1,0,0,0,784,0,0,795,
scooby_state_402dc3|6|-11 792,0,0,1,0,0,0,0,0,0,0,1,0,0,0,794,
scooby_state_402dcb|57|14 98,0,0,0,0,0,0,0,0,0,0,0,695,0,0,793,
scooby_state_402dc3|9|-11 789,1,0,0,0,0,0,0,1,0,0,1,0,0,0,792,
scooby_state_402dc3|46|-11 786,1,0,0,1,0,0,0,0,0,0,0,0,0,0,788,
scooby_state_402dcb|10|3 0,0,0,0,0,1,0,0,0,2,0,0,785,0,0,788,
scooby_state_402dcb|39|-7 0,1,0,0,0,0,0,0,0,0,0,0,786,0,0,787,
scooby_state_402dcb|58|8 11,2,0,0,0,0,0,0,0,0,0,0,774,0,0,787,
scooby_state_402dc3|3|-11 786,0,0,0,0,0,0,0,0,0,0,0,0,0,0,786,
scooby_state_402dcb|20|11 3,0,0,0,0,0,0,0,0,0,0,0,782,0,0,785,
scooby_state_402dc3|2|-21 784,0,0,0,1,0,0,0,0,0,0,0,0,0,0,785,
scooby_state_402dcb|18|4 6,1,0,0,0,1,0,0,0,0,0,1,775,0,0,784,
scooby_state_402dc3|12|-21 783,0,0,0,0,0,0,0,0,0,0,0,0,0,0,783,
scooby_state_402dc3|28|-11 780,0,1,0,0,0,0,0,0,0,1,0,0,0,0,782,
scooby_state_402dcb|57|7 17,0,0,0,0,0,0,0,0,0,0,0,764,0,0,781,
scooby_state_402dc3|22|-21 779,0,0,0,0,0,0,0,0,0,0,0,0,0,0,779,
scooby_state_402dc3|43|-14 779,0,0,0,0,0,0,0,0,0,0,0,0,0,0,779,
scooby_state_402dc3|26|-11 778,0,0,0,0,0,0,0,0,0,0,0,0,0,0,778,
scooby_state_402dc3|40|-11 773,0,1,0,0,0,0,0,0,0,0,0,0,0,0,774,
scooby_state_402dcb|11|-4 1,0,0,0,0,0,0,0,0,0,0,0,773,0,0,774,
scooby_state_402dc3|48|-11 774,0,0,0,0,0,0,0,0,0,0,0,0,0,0,774,
scooby_state_402dcb|28|-4 0,0,0,1,0,0,0,0,0,0,0,1,772,0,0,774,
scooby_state_4030c1|51|0 738,0,0,0,0,0,0,0,0,0,0,33,0,0,0,771,
scooby_state_402dcb|23|-7 0,1,0,0,0,0,0,0,0,0,0,0,766,0,0,767,
scooby_state_402dcb|58|4 9,0,0,0,0,0,0,0,1,0,0,5,752,0,0,767,
scooby_state_402dc3|21|-11 764,0,0,0,0,0,0,0,0,0,0,1,1,1,0,767,
scooby_state_402dcb|59|11 4,0,0,0,0,0,0,0,0,0,0,0,757,0,0,761,
scooby_state_402dcb|6|3 1,1,0,0,0,0,0,0,0,0,0,1,758,0,0,761,
scooby_state_402dcb|26|8 4,0,0,0,0,0,0,0,0,1,0,0,755,0,0,760,
scooby_state_402dcb|55|4 9,0,0,0,0,1,0,0,0,0,0,0,750,0,0,760,
scooby_state_402dcb|16|3 0,0,0,1,0,0,0,0,0,0,0,2,756,0,0,759,
scooby_state_402dcb|43|11 1,0,0,0,0,0,0,0,0,0,0,0,758,0,0,759,
scooby_state_402dcb|56|21 5,0,0,0,0,0,0,0,1,1,1,0,751,0,0,759,
scooby_state_402dcb|55|3 0,0,0,0,0,1,0,0,0,0,0,1,757,0,0,759,
scooby_state_402dcb|32|3 0,0,0,1,0,0,0,0,0,0,0,0,756,0,0,757,
scooby_state_402dcb|29|-7 0,0,0,0,0,0,0,0,0,0,0,1,753,0,0,754,
scooby_state_402dcb|12|7 6,0,1,0,0,0,0,0,0,0,0,0,746,0,0,753,
scooby_state_402dc3|8|-21 752,1,0,0,0,0,0,0,0,0,0,0,0,0,0,753,
scooby_state_402dcb|44|7 21,0,0,0,1,0,0,0,1,0,0,0,728,0,0,751,
scooby_state_402dc3|27|-11 747,0,1,0,1,0,0,0,2,0,0,0,0,0,0,751,
scooby_state_402dc3|35|-11 747,0,0,1,0,0,0,0,0,1,0,0,1,0,0,750,
scooby_state_403039|46|-2 1,0,0,0,0,0,0,1,0,0,0,745,0,0,0,747,
scooby_state_40307e|54|8 743,0,0,0,0,0,0,1,0,0,0,0,0,0,0,744,
scooby_state_402dc3|10|-11 743,0,0,0,0,0,0,0,0,1,0,0,0,0,0,744,
scooby_state_402dc3|19|-21 741,0,0,1,0,0,1,0,0,0,0,0,0,0,0,743,
scooby_state_402dcb|45|3 0,0,0,0,0,1,0,0,0,0,0,1,741,0,0,743,
scooby_state_402dc3|44|-11 738,0,0,0,1,0,1,0,1,0,0,0,0,0,0,741,
scooby_state_402dcb|14|8 15,0,0,0,0,0,0,0,0,0,0,1,725,0,0,741,
scooby_state_402dc3|54|-8 737,1,0,0,0,1,0,0,1,0,0,0,0,0,0,740,
scooby_state_402dcb|19|4 5,0,0,0,0,0,0,0,0,0,0,0,730,1,0,736,
scooby_state_402dcb|22|-7 0,0,0,0,0,0,0,0,0,0,0,0,734,0,0,734,
scooby_state_402dcb|60|8 8,1,0,0,0,0,0,1,0,0,0,0,723,0,0,733,
scooby_state_402dc3|18|-21 730,1,0,1,0,0,0,0,0,0,0,0,0,0,0,732,
scooby_state_402dcb|44|-4 0,0,0,0,0,1,0,0,0,0,0,0,730,0,0,731,
scooby_state_402dc3|23|-11 729,1,0,0,0,0,0,0,0,0,0,0,0,0,0,730,
scooby_state_402dcb|35|-7 0,0,0,1,0,0,0,0,0,0,0,0,728,0,0,729,
scooby_state_402dc3|32|-11 729,0,0,0,0,0,0,0,0,0,0,0,0,0,0,729,
scooby_state_402dcb|24|11 3,0,0,0,0,0,0,0,0,0,0,0,725,0,0,728,
scooby_state_402dcb|26|11 1,0,0,0,0,0,0,1,0,0,0,0,724,0,0,726,
scooby_state_402f3c|42|0 626,0,0,1,0,0,0,0,0,0,0,98,0,0,0,725,
scooby_state_402dc3|18|-11 725,0,0,0,0,0,0,0,0,0,0,0,0,0,0,725,
scooby_state_402dcb|29|21 5,0,0,0,0,0,0,0,0,0,0,0,720,0,0,725,
scooby_state_402dcb|48|-7 1,0,0,0,0,0,1,0,0,0,0,0,722,0,0,724,
scooby_state_402dcb|32|-7 0,0,0,0,1,0,0,0,0,0,0,0,721,0,0,722,
scooby_state_402f72|51|0 180,29,32,29,27,32,29,16,16,16,17,25,35,31,207,721,
scooby_state_402dcb|54|-4 0,0,0,0,0,0,0,0,0,2,0,0,717,0,0,719,
scooby_state_402dcb|3|-4 0,0,1,0,0,0,1,1,0,0,0,0,716,0,0,719,
scooby_state_402dc3|16|-21 718,0,0,0,1,0,0,0,0,0,0,0,0,0,0,719,
scooby_state_402dcb|27|11 5,0,0,0,0,1,0,0,0,0,0,0,713,0,0,719,
scooby_state_402dc3|17|-21 716,0,0,0,0,0,0,0,0,0,0,1,0,0,0,717,
scooby_state_402dcb|25|11 3,0,0,0,0,0,0,0,0,0,1,0,712,0,0,716,
scooby_state_402dcb|41|8 18,0,0,0,0,0,1,0,0,0,0,0,697,0,0,716,
scooby_state_402dc3|42|-11 716,0,0,0,0,0,0,0,0,0,0,0,0,0,0,716,
scooby_state_402dcb|21|3 0,1,0,1,0,0,0,0,0,1,0,2,710,0,0,715,
scooby_state_402dc3|0|-11 706,0,2,0,0,1,0,0,0,0,0,0,0,0,0,709,
scooby_state_402dc3|11|-11 708,0,0,0,0,0,0,0,0,0,0,0,0,0,0,708,
scooby_state_402dc7|57|-3 0,0,0,0,0,0,0,0,0,0,0,79,629,0,0,708,
scooby_state_402dc3|13|-11 705,0,0,0,1,0,0,0,0,0,0,0,0,0,1,707,
scooby_state_402dcb|1|-10 10,0,0,0,0,0,0,0,0,1,0,0,695,0,0,706,
scooby_state_402dcb|58|11 1,0,0,0,0,0,0,0,0,1,0,1,702,0,0,705,
scooby_state_402dcb|37|3 0,0,0,0,0,0,0,0,0,0,0,1,703,1,0,705,
scooby_state_40307e|25|-1 702,0,0,0,1,0,0,0,0,2,0,0,0,0,0,705,
scooby_state_402dcb|38|-7 0,0,0,0,1,0,0,0,0,0,0,0,702,0,0,703,
scooby_state_402dcb|55|21 11,0,1,0,0,0,1,0,0,0,0,0,688,0,0,701,
scooby_state_402dcb|36|8 2,0,0,0,0,0,0,0,0,0,0,0,698,0,0,700,
scooby_state_402dcb|45|8 12,0,0,0,1,0,1,0,0,0,0,0,683,0,0,697,
scooby_state_402dcb|21|11 2,0,0,0,0,0,0,0,0,0,0,0,694,0,0,696,
scooby_state_402dcb|52|11 2,0,0,0,0,0,0,0,0,0,0,1,690,0,0,693,
scooby_state_402dcb|55|8 16,0,0,0,0,0,0,0,0,0,0,0,675,0,0,691,
scooby_state_402dc3|14|-11 691,0,0,0,0,0,0,0,0,0,0,0,0,0,0,691,
scooby_state_402dc3|41|-11 689,0,0,0,0,0,0,0,0,0,0,0,0,0,0,689,
scooby_state_402dcb|45|11 5,0,0,0,0,0,0,0,0,0,0,1,682,0,0,688,
scooby_state_402dc3|0|-21 687,0,0,0,0,0,0,0,0,0,0,0,0,0,0,687,
scooby_state_402dcb|33|7 13,0,0,0,0,0,0,0,0,0,0,0,674,0,0,687,
scooby_state_402dcb|38|11 3,0,0,0,0,0,0,1,0,1,0,0,681,0,1,687,
scooby_state_402dcb|43|21 8,0,0,0,0,0,0,0,0,0,0,0,678,0,0,686,
scooby_state_402dcb|41|11 6,0,2,0,0,0,0,0,1,0,0,0,675,0,0,684,
scooby_state_402dc3|5|-21 683,0,0,0,0,0,0,0,0,0,0,0,0,0,0,683,
scooby_state_402dcb|12|4 3,0,0,0,0,0,0,0,0,0,0,2,678,0,0,683,
scooby_state_402dcb|34|8 12,0,1,0,0,0,0,0,0,0,0,0,669,0,0,682,
scooby_state_402dcb|8|3 0,0,0,0,0,0,1,0,0,0,0,0,681,0,0,682,
[...]
scooby_state_40307e|24|-11 1,0,0,0,0,0,0,0,0,0,0,0,0,0,0,1,
scooby_state_402dfb|23|-10 0,0,0,0,0,0,0,0,0,0,0,1,0,0,0,1,
scooby_state_403083|54|-3 1,0,0,0,0,0,0,0,0,0,0,0,0,0,0,1,
scooby_state_40307e|6|-9 1,0,0,0,0,0,0,0,0,0,0,0,0,0,0,1,
scooby_state_403083|34|-4 1,0,0,0,0,0,0,0,0,0,0,0,0,0,0,1,
scooby_state_40307e|12|-11 1,0,0,0,0,0,0,0,0,0,0,0,0,0,0,1,
scooby_state_402dc0|55|1 1,0,0,0,0,0,0,0,0,0,0,0,0,0,0,1,
scooby_state_40307e|42|18 1,0,0,0,0,0,0,0,0,0,0,0,0,0,0,1,
scooby_state_403083|47|6 1,0,0,0,0,0,0,0,0,0,0,0,0,0,0,1,
scooby_state_402d9f|47|0 0,0,0,0,0,0,0,0,0,0,0,0,0,0,1,1,
scooby_state_4030f5|3|3 1,0,0,0,0,0,0,0,0,0,0,0,0,0,0,1,
scooby_state_40307e|44|29 1,0,0,0,0,0,0,0,0,0,0,0,0,0,0,1,
scooby_state_402ff0|63|0 1,0,0,0,0,0,0,0,0,0,0,0,0,0,0,1,
scooby_state_403039|22|-1 0,0,0,0,0,0,0,0,0,0,0,1,0,0,0,1,
scooby_state_403083|18|-44 1,0,0,0,0,0,0,0,0,0,0,0,0,0,0,1,
scooby_state_403083|14|-36 1,0,0,0,0,0,0,0,0,0,0,0,0,0,0,1,
scooby_state_403012|2|-20 0,0,0,0,0,0,0,0,0,0,0,1,0,0,0,1,
scooby_state_40307e|33|27 1,0,0,0,0,0,0,0,0,0,0,0,0,0,0,1,
scooby_state_403012|25|-11 1,0,0,0,0,0,0,0,0,0,0,0,0,0,0,1,
scooby_state_403012|63|44 1,0,0,0,0,0,0,0,0,0,0,0,0,0,0,1,
scooby_state_403083|44|-15 1,0,0,0,0,0,0,0,0,0,0,0,0,0,0,1,
scooby_state_403083|23|-39 1,0,0,0,0,0,0,0,0,0,0,0,0,0,0,1,
scooby_state_403083|14|-49 1,0,0,0,0,0,0,0,0,0,0,0,0,0,0,1,
scooby_state_403012|33|-30 1,0,0,0,0,0,0,0,0,0,0,0,0,0,0,1,
scooby_state_403039|8|-14 0,0,0,0,0,0,0,0,0,0,0,1,0,0,0,1,
scooby_state_403083|51|4 1,0,0,0,0,0,0,0,0,0,0,0,0,0,0,1,
scooby_state_40307e|51|9 1,0,0,0,0,0,0,0,0,0,0,0,0,0,0,1,
scooby_state_403039|39|-24 1,0,0,0,0,0,0,0,0,0,0,0,0,0,0,1,
scooby_state_40307e|2|-50 1,0,0,0,0,0,0,0,0,0,0,0,0,0,0,1,
scooby_state_403012|42|-12 1,0,0,0,0,0,0,0,0,0,0,0,0,0,0,1,
scooby_state_41b304|12|1 1,0,0,0,0,0,0,0,0,0,0,0,0,0,0,1,
scooby_state_402dc3|22|-41 1,0,0,0,0,0,0,0,0,0,0,0,0,0,0,1,
scooby_state_403012|11|-20 0,0,0,0,0,0,0,0,0,0,0,1,0,0,0,1,
scooby_state_403083|8|-2 1,0,0,0,0,0,0,0,0,0,0,0,0,0,0,1,
scooby_state_403012|26|-36 1,0,0,0,0,0,0,0,0,0,0,0,0,0,0,1,
scooby_state_402d9f|42|0 0,0,0,0,0,0,0,0,0,0,0,1,0,0,0,1,
scooby_state_402dcb|51|32 1,0,0,0,0,0,0,0,0,0,0,0,0,0,0,1,
scooby_state_402dc7|47|8 0,0,0,0,0,0,0,0,0,0,0,0,1,0,0,1,
scooby_state_402e04|20|-1 1,0,0,0,0,0,0,0,0,0,0,0,0,0,0,1,
scooby_state_402dfb|54|9 0,0,0,0,0,0,0,0,0,0,0,0,1,0,0,1,
scooby_state_40307e|8|-32 1,0,0,0,0,0,0,0,0,0,0,0,0,0,0,1,
scooby_state_402c80|50|0 0,0,0,0,0,0,0,0,0,0,0,0,1,0,0,1,
scooby_state_403083|16|-13 1,0,0,0,0,0,0,0,0,0,0,0,0,0,0,1,
scooby_state_40307e|15|-20 1,0,0,0,0,0,0,0,0,0,0,0,0,0,0,1,
scooby_state_40307e|22|-22 1,0,0,0,0,0,0,0,0,0,0,0,0,0,0,1,
scooby_state_402dc3|20|-34 1,0,0,0,0,0,0,0,0,0,0,0,0,0,0,1,
scooby_state_402f40|61|1 1,0,0,0,0,0,0,0,0,0,0,0,0,0,0,1,
scooby_state_40301c|20|-11 0,0,0,0,0,0,0,0,0,0,0,0,0,0,1,1,
scooby_state_40307e|17|-20 1,0,0,0,0,0,0,0,0,0,0,0,0,0,0,1,
scooby_state_40307e|47|30 1,0,0,0,0,0,0,0,0,0,0,0,0,0,0,1,
scooby_state_40307e|26|25 1,0,0,0,0,0,0,0,0,0,0,0,0,0,0,1,
scooby_state_403083|29|-7 1,0,0,0,0,0,0,0,0,0,0,0,0,0,0,1,
scooby_state_402dc3|28|-6 1,0,0,0,0,0,0,0,0,0,0,0,0,0,0,1,
scooby_state_403083|12|-15 1,0,0,0,0,0,0,0,0,0,0,0,0,0,0,1,
scooby_state_40307e|54|27 1,0,0,0,0,0,0,0,0,0,0,0,0,0,0,1,
scooby_state_402dc3|21|-38 1,0,0,0,0,0,0,0,0,0,0,0,0,0,0,1,
scooby_state_403012|8|-3 1,0,0,0,0,0,0,0,0,0,0,0,0,0,0,1,
scooby_state_41d3be|34|3 1,0,0,0,0,0,0,0,0,0,0,0,0,0,0,1,
scooby_state_40307e|32|-16 1,0,0,0,0,0,0,0,0,0,0,0,0,0,0,1,
scooby_state_40307e|45|34 1,0,0,0,0,0,0,0,0,0,0,0,0,0,0,1,
scooby_state_403012|2|-47 1,0,0,0,0,0,0,0,0,0,0,0,0,0,0,1,
scooby_state_403039|50|0 0,0,0,0,0,0,0,0,0,0,0,1,0,0,0,1,
scooby_state_40301c|30|-8 0,0,0,0,0,0,0,0,0,0,0,0,1,0,0,1,
scooby_state_40308c|53|0 1,0,0,0,0,0,0,0,0,0,0,0,0,0,0,1,
scooby_state_40307e|5|-40 1,0,0,0,0,0,0,0,0,0,0,0,0,0,0,1,
scooby_state_403012|28|-6 0,0,0,0,0,0,0,0,0,0,0,0,1,0,0,1,
scooby_state_40307e|53|47 1,0,0,0,0,0,0,0,0,0,0,0,0,0,0,1,
scooby_state_403083|2|-2 0,0,0,0,0,0,0,0,0,0,0,0,1,0,0,1,
scooby_state_403083|27|-1 0,0,0,0,0,0,0,0,0,0,0,0,1,0,0,1,
scooby_state_40307e|28|27 1,0,0,0,0,0,0,0,0,0,0,0,0,0,0,1,
scooby_state_40307e|22|-17 1,0,0,0,0,0,0,0,0,0,0,0,0,0,0,1,
scooby_state_403083|19|-27 0,0,0,0,0,0,0,0,0,0,0,0,1,0,0,1,
scooby_state_403083|46|-15 0,0,0,0,0,0,0,0,0,0,0,0,0,0,1,1,
scooby_state_403083|37|-5 1,0,0,0,0,0,0,0,0,0,0,0,0,0,0,1,
scooby_state_402dc7|18|-18 0,0,0,0,0,0,0,0,0,0,0,0,1,0,0,1,
scooby_state_402d9f|37|0 0,0,0,0,0,0,0,0,0,1,0,0,0,0,0,1,
scooby_state_403039|34|-1 0,0,0,0,0,0,0,0,0,0,0,1,0,0,0,1,
scooby_state_40307e|48|41 1,0,0,0,0,0,0,0,0,0,0,0,0,0,0,1,
scooby_state_402dc7|28|-13 0,0,0,0,0,0,0,0,0,0,0,0,1,0,0,1,
scooby_state_40307e|63|34 1,0,0,0,0,0,0,0,0,0,0,0,0,0,0,1,
scooby_state_403012|45|-10 0,0,0,0,0,0,0,0,0,0,0,0,1,0,0,1,
scooby_state_402dc7|48|0 0,0,0,0,0,0,0,0,0,0,0,0,1,0,0,1,
scooby_state_402dc7|48|-11 0,0,0,0,0,0,0,0,0,0,0,1,0,0,0,1,
scooby_state_403083|26|-6 1,0,0,0,0,0,0,0,0,0,0,0,0,0,0,1,
scooby_state_40307e|39|36 1,0,0,0,0,0,0,0,0,0,0,0,0,0,0,1,
scooby_state_40307e|8|-43 1,0,0,0,0,0,0,0,0,0,0,0,0,0,0,1,
scooby_state_403012|24|-39 0,0,0,0,0,0,0,0,0,0,0,0,1,0,0,1,
scooby_state_402dc7|14|12 0,0,0,0,0,0,0,0,0,0,0,0,1,0,0,1,
scooby_state_402d9f|55|0 0,0,0,0,0,0,0,0,0,0,0,0,0,0,1,1,
scooby_state_403012|12|-18 1,0,0,0,0,0,0,0,0,0,0,0,0,0,0,1,
scooby_state_402dfb|27|-10 0,0,0,0,0,0,0,0,0,0,0,1,0,0,0,1,
scooby_state_402dcb|20|-24 1,0,0,0,0,0,0,0,0,0,0,0,0,0,0,1,
scooby_state_40301c|7|-49 1,0,0,0,0,0,0,0,0,0,0,0,0,0,0,1,
scooby_state_402dc3|11|-31 1,0,0,0,0,0,0,0,0,0,0,0,0,0,0,1,
scooby_state_403012|16|-32 1,0,0,0,0,0,0,0,0,0,0,0,0,0,0,1,
scooby_state_403083|55|8 1,0,0,0,0,0,0,0,0,0,0,0,0,0,0,1,
scooby_state_402dc7|52|15 0,0,0,0,0,0,0,0,0,0,0,0,1,0,0,1,
scooby_state_403083|28|-27 0,0,0,0,0,0,0,0,0,0,0,0,1,0,0,1,
scooby_state_403083|36|-13 0,0,0,0,0,0,0,0,0,0,0,1,0,0,0,1,
scooby_state_402dcb|27|23 1,0,0,0,0,0,0,0,0,0,0,0,0,0,0,1,
scooby_state_402dc7|62|9 0,0,0,0,0,0,0,0,0,0,0,0,1,0,0,1,
scooby_state_40301c|48|35 1,0,0,0,0,0,0,0,0,0,0,0,0,0,0,1,
scooby_state_403083|25|-2 0,0,0,0,0,0,0,0,0,0,0,0,0,0,1,1,
scooby_state_403012|63|36 1,0,0,0,0,0,0,0,0,0,0,0,0,0,0,1,
scooby_state_402f3c|60|4 1,0,0,0,0,0,0,0,0,0,0,0,0,0,0,1,
scooby_state_403083|12|-34 1,0,0,0,0,0,0,0,0,0,0,0,0,0,0,1,
scooby_state_403039|16|-1 0,0,0,0,0,0,0,0,0,0,0,1,0,0,0,1,
scooby_state_402dc7|19|0 0,0,0,0,0,0,0,0,0,0,0,1,0,0,0,1,
scooby_state_40307e|19|-38 1,0,0,0,0,0,0,0,0,0,0,0,0,0,0,1,
scooby_state_40301c|0|-29 1,0,0,0,0,0,0,0,0,0,0,0,0,0,0,1,
scooby_state_402dcb|25|-37 1,0,0,0,0,0,0,0,0,0,0,0,0,0,0,1,
scooby_state_403012|24|-15 0,0,1,0,0,0,0,0,0,0,0,0,0,0,0,1,
scooby_state_402dc7|56|13 0,0,0,0,0,0,0,0,0,0,0,0,1,0,0,1,
scooby_state_402e04|55|-2 1,0,0,0,0,0,0,0,0,0,0,0,0,0,0,1,
scooby_state_40301c|59|3 1,0,0,0,0,0,0,0,0,0,0,0,0,0,0,1,
scooby_state_402dc7|33|9 0,0,0,0,0,0,0,0,0,0,0,1,0,0,0,1,
scooby_state_403083|39|-4 1,0,0,0,0,0,0,0,0,0,0,0,0,0,0,1,
scooby_state_40307e|60|52 1,0,0,0,0,0,0,0,0,0,0,0,0,0,0,1,
scooby_state_403083|59|-2 1,0,0,0,0,0,0,0,0,0,0,0,0,0,0,1,
scooby_state_402e04|44|-1 0,0,0,0,0,0,0,0,0,0,0,0,1,0,0,1,
scooby_state_402dcb|34|-27 1,0,0,0,0,0,0,0,0,0,0,0,0,0,0,1,
scooby_state_40307e|44|-9 1,0,0,0,0,0,0,0,0,0,0,0,0,0,0,1,
scooby_state_40301c|56|-7 0,0,0,0,0,0,0,0,0,0,0,0,1,0,0,1,
scooby_state_402dcb|39|25 1,0,0,0,0,0,0,0,0,0,0,0,0,0,0,1,
scooby_state_402e04|58|0 1,0,0,0,0,0,0,0,0,0,0,0,0,0,0,1,
scooby_state_403012|18|-9 0,0,0,0,0,0,0,0,0,0,0,0,1,0,0,1,
scooby_state_403039|25|-38 0,0,0,0,0,0,0,0,0,0,0,1,0,0,0,1,
scooby_state_403012|21|-26 1,0,0,0,0,0,0,0,0,0,0,0,0,0,0,1,
scooby_state_403083|30|-1 1,0,0,0,0,0,0,0,0,0,0,0,0,0,0,1,
scooby_state_403083|3|-2 0,0,0,0,0,0,0,0,0,0,0,0,0,0,1,1,
scooby_state_403012|19|-3 1,0,0,0,0,0,0,0,0,0,0,0,0,0,0,1,
scooby_state_402dc7|9|-13 0,0,0,0,0,0,0,0,0,0,0,0,1,0,0,1,
scooby_state_402dc3|16|-35 1,0,0,0,0,0,0,0,0,0,0,0,0,0,0,1,
scooby_state_403012|4|-4 1,0,0,0,0,0,0,0,0,0,0,0,0,0,0,1,
scooby_state_402dfb|21|-11 0,0,0,0,0,0,0,0,0,0,0,0,1,0,0,1,
scooby_state_402dc7|37|-11 0,0,0,0,0,0,0,0,0,0,0,0,1,0,0,1,
scooby_state_40301c|30|-5 1,0,0,0,0,0,0,0,0,0,0,0,0,0,0,1,
scooby_state_403083|30|-32 1,0,0,0,0,0,0,0,0,0,0,0,0,0,0,1,
scooby_state_402dc3|15|-35 1,0,0,0,0,0,0,0,0,0,0,0,0,0,0,1,
scooby_state_402dc7|48|10 0,0,0,0,0,0,0,0,0,0,0,0,1,0,0,1,
scooby_state_40307e|16|-13 1,0,0,0,0,0,0,0,0,0,0,0,0,0,0,1,
scooby_state_40307e|59|54 1,0,0,0,0,0,0,0,0,0,0,0,0,0,0,1,
scooby_state_403012|28|-13 1,0,0,0,0,0,0,0,0,0,0,0,0,0,0,1,
scooby_state_403039|61|2 0,0,0,0,0,0,0,0,0,0,0,1,0,0,0,1,
scooby_state_40301c|5|0 0,0,0,0,0,0,0,0,0,0,0,0,1,0,0,1,
scooby_state_403083|48|-9 1,0,0,0,0,0,0,0,0,0,0,0,0,0,0,1,
scooby_state_402dcb|29|-23 0,0,0,0,0,0,0,0,0,0,0,0,1,0,0,1,
scooby_state_40307e|9|-33 1,0,0,0,0,0,0,0,0,0,0,0,0,0,0,1,
scooby_state_402d9f|24|0 0,0,0,0,0,0,0,0,0,1,0,0,0,0,0,1,
scooby_state_40307e|38|25 1,0,0,0,0,0,0,0,0,0,0,0,0,0,0,1,
scooby_state_402d9f|31|0 0,0,0,0,0,0,0,0,0,1,0,0,0,0,0,1,
scooby_state_40307e|14|-48 1,0,0,0,0,0,0,0,0,0,0,0,0,0,0,1,
scooby_state_403039|17|0 0,0,0,0,0,0,0,0,0,0,0,1,0,0,0,1,
scooby_state_403083|4|-25 1,0,0,0,0,0,0,0,0,0,0,0,0,0,0,1,
scooby_state_403012|24|-8 1,0,0,0,0,0,0,0,0,0,0,0,0,0,0,1,
scooby_state_403012|42|-21 0,0,1,0,0,0,0,0,0,0,0,0,0,0,0,1,
scooby_state_40301c|30|-10 1,0,0,0,0,0,0,0,0,0,0,0,0,0,0,1,
scooby_state_403083|43|-19 1,0,0,0,0,0,0,0,0,0,0,0,0,0,0,1,
scooby_state_40301c|23|2 1,0,0,0,0,0,0,0,0,0,0,0,0,0,0,1,
scooby_state_402dcb|23|-31 1,0,0,0,0,0,0,0,0,0,0,0,0,0,0,1,
scooby_state_40307e|14|-22 1,0,0,0,0,0,0,0,0,0,0,0,0,0,0,1,
scooby_state_403083|10|-40 0,0,0,0,0,0,0,0,0,0,0,1,0,0,0,1,
scooby_state_402d9f|3|0 0,0,0,0,0,1,0,0,0,0,0,0,0,0,0,1,
scooby_state_403083|40|-9 1,0,0,0,0,0,0,0,0,0,0,0,0,0,0,1,
scooby_state_40307e|6|-37 1,0,0,0,0,0,0,0,0,0,0,0,0,0,0,1,
scooby_state_402dfb|29|9 0,0,0,0,0,0,0,0,0,0,0,0,1,0,0,1,
scooby_state_40301c|49|2 1,0,0,0,0,0,0,0,0,0,0,0,0,0,0,1,
scooby_state_402dc7|21|-16 0,0,0,0,0,0,0,0,0,0,0,0,1,0,0,1,
scooby_state_40307e|9|-49 1,0,0,0,0,0,0,0,0,0,0,0,0,0,0,1,
scooby_state_402dcb|24|-31 1,0,0,0,0,0,0,0,0,0,0,0,0,0,0,1,
scooby_state_40307e|4|-50 1,0,0,0,0,0,0,0,0,0,0,0,0,0,0,1,
scooby_state_402f82|62|1 1,0,0,0,0,0,0,0,0,0,0,0,0,0,0,1,
scooby_state_40301c|14|-49 0,0,1,0,0,0,0,0,0,0,0,0,0,0,0,1,
scooby_state_40301c|15|0 0,0,0,0,0,0,0,0,0,0,0,0,1,0,0,1,
scooby_state_402dc7|62|8 0,0,0,0,0,0,0,0,0,0,0,0,1,0,0,1,
scooby_state_41a829|32|1 1,0,0,0,0,0,0,0,0,0,0,0,0,0,0,1,
scooby_state_40307e|50|47 1,0,0,0,0,0,0,0,0,0,0,0,0,0,0,1,
scooby_state_403012|60|14 1,0,0,0,0,0,0,0,0,0,0,0,0,0,0,1,
scooby_state_40307e|28|-34 1,0,0,0,0,0,0,0,0,0,0,0,0,0,0,1,
scooby_state_402d9f|58|0 0,0,0,0,0,0,0,0,0,0,0,0,0,0,1,1,
scooby_state_403012|17|-5 1,0,0,0,0,0,0,0,0,0,0,0,0,0,0,1,
scooby_state_403012|10|-11 1,0,0,0,0,0,0,0,0,0,0,0,0,0,0,1,
scooby_state_402d9f|13|0 0,0,0,0,0,0,0,0,0,1,0,0,0,0,0,1,
scooby_state_40307e|27|-27 1,0,0,0,0,0,0,0,0,0,0,0,0,0,0,1,
scooby_state_402d9f|50|0 0,0,0,0,0,0,0,0,0,0,0,0,0,0,1,1,
scooby_state_402dab|17|3 0,0,0,0,0,0,0,0,0,0,0,0,1,0,0,1,
scooby_state_403083|54|3 0,0,0,0,0,0,0,0,0,0,0,0,1,0,0,1,
scooby_state_403012|31|-13 1,0,0,0,0,0,0,0,0,0,0,0,0,0,0,1,
scooby_state_40301c|63|43 1,0,0,0,0,0,0,0,0,0,0,0,0,0,0,1,
scooby_state_403083|17|-45 1,0,0,0,0,0,0,0,0,0,0,0,0,0,0,1,
scooby_state_402dc7|7|-12 0,0,0,0,0,0,0,0,0,0,0,0,1,0,0,1,
scooby_state_41d482|18|1 0,0,0,0,0,0,0,0,0,0,0,1,0,0,0,1,
scooby_state_403039|14|-29 1,0,0,0,0,0,0,0,0,0,0,0,0,0,0,1,
scooby_state_403083|11|-22 1,0,0,0,0,0,0,0,0,0,0,0,0,0,0,1,
scooby_state_403012|28|-8 1,0,0,0,0,0,0,0,0,0,0,0,0,0,0,1,
scooby_state_403012|4|-9 0,0,0,0,0,0,0,0,0,0,0,0,1,0,0,1,
scooby_state_40301c|8|-29 1,0,0,0,0,0,0,0,0,0,0,0,0,0,0,1,
scooby_state_4030ff|54|1 1,0,0,0,0,0,0,0,0,0,0,0,0,0,0,1,
scooby_state_40307e|18|-13 1,0,0,0,0,0,0,0,0,0,0,0,0,0,0,1,
scooby_state_40307e|28|-31 1,0,0,0,0,0,0,0,0,0,0,0,0,0,0,1,
scooby_state_403039|18|-23 1,0,0,0,0,0,0,0,0,0,0,0,0,0,0,1,
scooby_state_402dc7|16|0 0,0,0,0,0,0,0,0,0,0,0,1,0,0,0,1,
scooby_state_40307e|53|38 1,0,0,0,0,0,0,0,0,0,0,0,0,0,0,1,
scooby_state_402dc7|38|-10 0,0,0,0,0,0,0,0,0,0,0,0,1,0,0,1,
scooby_state_40307e|6|-40 1,0,0,0,0,0,0,0,0,0,0,0,0,0,0,1,
scooby_state_402e04|36|-1 1,0,0,0,0,0,0,0,0,0,0,0,0,0,0,1,
scooby_state_41ac4f|49|10 1,0,0,0,0,0,0,0,0,0,0,0,0,0,0,1,
scooby_state_403039|58|-5 0,0,0,0,0,0,0,0,0,0,0,0,1,0,0,1,
scooby_state_402dc7|5|-14 0,0,0,0,0,0,0,0,0,0,0,0,1,0,0,1,
scooby_state_403012|63|45 1,0,0,0,0,0,0,0,0,0,0,0,0,0,0,1,
scooby_state_403012|40|-23 1,0,0,0,0,0,0,0,0,0,0,0,0,0,0,1,
scooby_state_403039|58|-4 1,0,0,0,0,0,0,0,0,0,0,0,0,0,0,1,
scooby_state_402dfb|41|-9 0,0,0,0,0,0,0,0,0,0,0,0,1,0,0,1,
scooby_state_403012|44|-9 0,0,0,0,0,0,0,0,0,0,0,0,1,0,0,1,
scooby_state_403012|0|-4 1,0,0,0,0,0,0,0,0,0,0,0,0,0,0,1,

scooby_action_0_deg_dist 0,58172,0,0,0,0,0,0,0,0,0,0,0,0,0,0,
scooby_action_-6_deg_dist 0,557,0,0,0,0,0,0,0,0,0,0,0,0,0,0,
scooby_action_4_deg_dist 0,2197,432,0,804,0,1260,0,0,0,0,0,0,0,0,0,
scooby_action_1_deg_dist 0,249068,127092,0,283369,0,417563,0,0,0,0,0,0,0,0,0,
scooby_action_30_deg_dist 0,549,5,0,5,0,10,0,0,0,0,0,0,0,0,0,
scooby_action_5_deg_dist 0,540,13,0,27,0,28,0,0,0,0,0,0,0,0,0,
scooby_action_3_deg_dist 0,615,14,0,21,0,30,0,0,0,0,0,0,0,0,0,
scooby_action_32_deg_dist 0,478,6,0,8,0,3,0,0,0,0,0,0,0,0,0,
scooby_action_10_deg_dist 0,629,7,0,17,0,20,0,0,0,0,0,0,0,0,0,
scooby_action_11_deg_dist 0,573,10,0,26,0,17,0,0,0,0,0,0,0,0,0,
scooby_action_12_deg_dist 0,586,11,0,24,0,23,0,0,0,0,0,0,0,0,0,
scooby_action_22_deg_dist 0,533,10,0,17,0,10,0,0,0,0,0,0,0,0,0,
scooby_action_23_deg_dist 0,583,8,0,17,0,10,0,0,0,0,0,0,0,0,0,
scooby_action_-1_deg_dist 0,163980,76528,0,123652,0,607779,0,0,0,0,0,0,0,0,0,
scooby_action_-3_deg_dist 0,482821,163036,0,121829,0,156698,0,0,0,0,0,0,0,0,0,

scooby_track_called 3042320
scooby_track_same_address 580541
scooby_track_evict 2461523

scooby_reward_demand_called 3042320
scooby_reward_demand_pt_not_found 1469842
scooby_reward_demand_pt_found 1572478
scooby_reward_demand_pt_found_total 1572478
scooby_reward_demand_has_reward 689
scooby_reward_train_called 810725
scooby_reward_assign_reward_called 2461674
scooby_reward_no_pref 58172
scooby_reward_incorrect 752553
scooby_reward_correct_untimely 893317
scooby_reward_correct_timely 678472
scooby_reward_out_of_bounds 79160
scooby_reward_tracker_hit 0

scooby_reward_none_low_bw 58172
scooby_reward_none_high_bw 0
scooby_reward_incorrect_low_bw 752553
scooby_reward_incorrect_high_bw 0
scooby_reward_correct_untimely_low_bw 893317
scooby_reward_correct_untimely_high_bw 0
scooby_reward_correct_timely_low_bw 678472
scooby_reward_correct_timely_high_bw 0
scooby_reward_out_of_bounds_low_bw 79160
scooby_reward_out_of_bounds_high_bw 0
scooby_reward_tracker_hit_low_bw 0
scooby_reward_tracker_hit_high_bw 0

scooby_reward_1 0,277665,181127,486789,17368,0,
scooby_reward_3 0,439,22,8,28,0,
scooby_reward_4 0,1737,1058,1152,285,0,
scooby_reward_5 0,410,4,7,49,0,
scooby_reward_10 0,360,1,13,109,0,
scooby_reward_11 0,324,2,8,91,0,
scooby_reward_12 0,399,4,8,108,0,
scooby_reward_22 0,228,1,0,225,0,
scooby_reward_23 0,266,0,13,228,0,
scooby_reward_30 0,187,3,3,278,0,
scooby_reward_32 0,157,0,2,256,0,
scooby_reward_-1 0,227382,553409,68233,15344,0,
scooby_reward_-3 0,242708,157640,122096,44744,0,
scooby_reward_-6 0,291,46,140,47,0,
scooby_reward_0 58172,0,0,0,0,0,

scooby_train_called 2461522
scooby_train_compute_reward 810725

scooby_register_fill_called 3111808
scooby_register_fill_set 1095321
scooby_register_fill_set_total 1095321

scooby_register_prefetch_hit_called 3264932
scooby_register_prefetch_hit_set 1192313
scooby_register_prefetch_hit_set_total 1192313

scooby_pref_issue_scooby 9025466

learning_engine_featurewise.action.called 3042320
learning_engine_featurewise.action.explore 5527
learning_engine_featurewise.action.exploit 3036793
learning_engine_featurewise.action.fallback 0
learning_engine_featurewise.action.dyn_fallback_saved_bw 0
learning_engine_featurewise.action.dyn_fallback_saved_bw_acc 27841
learning_engine_featurewise.action.index_1_explored 360
learning_engine_featurewise.action.index_1_exploited 1076732
learning_engine_featurewise.action.index_3_explored 390
learning_engine_featurewise.action.index_3_exploited 290
learning_engine_featurewise.action.index_4_explored 386
learning_engine_featurewise.action.index_4_exploited 4307
learning_engine_featurewise.action.index_5_explored 340
learning_engine_featurewise.action.index_5_exploited 268
learning_engine_featurewise.action.index_10_explored 411
learning_engine_featurewise.action.index_10_exploited 262
learning_engine_featurewise.action.index_11_explored 384
learning_engine_featurewise.action.index_11_exploited 242
learning_engine_featurewise.action.index_12_explored 378
learning_engine_featurewise.action.index_12_exploited 266
learning_engine_featurewise.action.index_22_explored 366
learning_engine_featurewise.action.index_22_exploited 204
learning_engine_featurewise.action.index_23_explored 372
learning_engine_featurewise.action.index_23_exploited 246
learning_engine_featurewise.action.index_30_explored 357
learning_engine_featurewise.action.index_30_exploited 212
learning_engine_featurewise.action.index_32_explored 332
learning_engine_featurewise.action.index_32_exploited 163
learning_engine_featurewise.action.index_-1_explored 374
learning_engine_featurewise.action.index_-1_exploited 971565
learning_engine_featurewise.action.index_-3_explored 366
learning_engine_featurewise.action.index_-3_exploited 924018
learning_engine_featurewise.action.index_-6_explored 344
learning_engine_featurewise.action.index_-6_exploited 213
learning_engine_featurewise.action.index_0_explored 367
learning_engine_featurewise.action.index_0_exploited 57805
learning_engine_featurewise.learn.called 2461522
learning_engine_featurewise.learn.su_skip_PC 0
learning_engine_featurewise.learn.su_skip_PC_Delta 0

learning_engine_featurewise.q_value_histogram.bucket_0 0
learning_engine_featurewise.q_value_histogram.bucket_1 0
learning_engine_featurewise.q_value_histogram.bucket_2 786
learning_engine_featurewise.q_value_histogram.bucket_3 23379
learning_engine_featurewise.q_value_histogram.bucket_4 90271
learning_engine_featurewise.q_value_histogram.bucket_5 456694
learning_engine_featurewise.q_value_histogram.bucket_6 2465663
learning_engine_featurewise.q_value_histogram.bucket_7 0

learning_engine_featurewise.consensus.total 3036793
learning_engine_featurewise.consensus.feature_align_PC 2799755
learning_engine_featurewise.consensus.feature_align_PC_ratio 0.92
learning_engine_featurewise.consensus.feature_align_PC_Delta 2573357
learning_engine_featurewise.consensus.feature_align_PC_Delta_ratio 0.85
learning_engine_featurewise.consensus.feature_align_all 2336319
learning_engine_featurewise.consensus.feature_align_all_ratio 0.77

learning_engine_featurewise.feature_PC_min_weight 1000000.00000000
learning_engine_featurewise.feature_PC_max_weight 0.00000000
learning_engine_featurewise.feature_PC_Delta_min_weight 1000000.00000000
learning_engine_featurewise.feature_PC_Delta_max_weight 0.00000000
unique_pcs 76
unique_pages 11808
unique_trigger_pcs 39
total_bitmaps_seen 0
unique_bitmaps_seen 0

scooby_bw_epochs 581042
scooby_bw_level_0 223548
scooby_bw_level_1 96135
scooby_bw_level_2 50136
scooby_bw_level_3 211223

scooby_ipc_epochs 0
scooby_ipc_level_0 0
scooby_ipc_level_1 0
scooby_ipc_level_2 0
scooby_ipc_level_3 0

scooby_cache_acc_epochs 138054
scooby_cache_acc_level_0 25
scooby_cache_acc_level_1 655
scooby_cache_acc_level_2 3368
scooby_cache_acc_level_3 6998
scooby_cache_acc_level_4 42182
scooby_cache_acc_level_5 35212
scooby_cache_acc_level_6 15477
scooby_cache_acc_level_7 10078
scooby_cache_acc_level_8 6734
scooby_cache_acc_level_9 17325

Channel_0_RQ_row_buffer_hit 2573425
Channel_0_RQ_row_buffer_miss 1128036
Channel_0_WQ_row_buffer_hit 43345
Channel_0_WQ_row_buffer_miss 212274
Channel_0_WQ_full 0
Channel_0_dbus_congested 2876477

avg_congested_cycle 10

DRAM_bw_pochs 581042
DRAM_bw_level_0 223548
DRAM_bw_level_1 96135
DRAM_bw_level_2 50136
DRAM_bw_level_3 211223
