*************************************************
   ChampSim Multicore Out-of-Order Simulator
   Last compiled: Apr  3 2025 20:54:34
*************************************************
parsing config file: /home/zir/Pythia/config/pythia.ini

trace_0 /home/zir/ChampSim/ML-DPC/ChampSimTraces/spec17/623.xalancbmk-s3.trace.xz
adding L2C_PREFETCHER: Scooby
Initialize SHIP state
warmup_instructions 10000000
simulation_instructions 50000000
champsim_seed 166
measure_ipc 0
measure_ipc_epoch 1000
measure_dram_bw 1
measure_dram_bw_epoch 256
measure_cache_acc 1
measure_cache_acc_epoch 1024
l1d_perfect 0
l2c_perfect 0
llc_perfect 0
l1d_semi_perfect 0
l2c_semi_perfect 0
llc_semi_perfect 0
semi_perfect_cache_page_buffer_size 64

num_cpus 1
cpu_freq 4000
dram_io_freq 2400
page_size 4096
block_size 64
max_read_per_cycle 8
max_fill_per_cycle 1
dram_channels 1
log2_dram_channels 0
dram_ranks 1
dram_banks 8
dram_rows 65536
dram_columns 128
dram_row_size 8
dram_size 4096
dram_pages 1048576

fetch_width 6
decode_width 6
exec_width 4
lq_width 2
sq_width 2
retire_width 4
scheduler_size 128
branch_mispredict_penalty 20
rob_size 256
lq_size 72
sq_size 56
num_instr_destinations_sparc 4
num_instr_destinations 2
num_instr_sources 4

itlb_set 16
itlb_way 8
itlb_rq_size 16
itlb_wq_size 16
itlb_pq_size 0
itlb_mshr_size 8
itlb_latency 1

dtlb_set 16
dtlb_way 4
dtlb_rq_size 16
dtlb_wq_size 16
dtlb_pq_size 0
dtlb_mshr_size 8
dtlb_latency 1

stlb_set 128
stlb_way 12
stlb_rq_size 32
stlb_wq_size 32
stlb_pq_size 0
stlb_mshr_size 16
stlb_latency 8

l1i_size 32
l1i_set 64
l1i_way 8
l1i_rq_size 64
l1i_wq_size 64
l1i_pq_size 8
l1i_mshr_size 8
l1i_latency 1

l1d_size 32
l1d_set 64
l1d_way 8
l1d_rq_size 64
l1d_wq_size 64
l1d_pq_size 8
l1d_mshr_size 16
l1d_latency 4

l2c_size 256
l2c_set 512
l2c_way 8
l2c_rq_size 32
l2c_wq_size 32
l2c_pq_size 32
l2c_mshr_size 32
l2c_latency 10

llc_size 2048
llc_set 2048
llc_way 16
llc_rq_size 32
llc_wq_size 32
llc_pq_size 32
llc_mshr_size 64
llc_latency 20

dram_channel_width 8
dram_wq_size 64
dram_rq_size 64
tRP 15
tRCD 15
tCAS 12.5
dram_dbus_turn_around_time 30
dram_write_high_wm 56
dram_write_low_wm 48
min_dram_writes_per_switch 16
dram_mtps 2400
dram_dbus_return_time 13

scooby_alpha 0.0065088
scooby_gamma 0.556301
scooby_epsilon 0.00182284
scooby_state_num_bits 10
scooby_max_states 1024
scooby_seed 200
scooby_policy EGreedy
scooby_learning_type SARSA
scooby_actions 1,3,4,5,10,11,12,22,23,30,32,-1,-3,-6,0,
scooby_max_actions 15
scooby_pt_size 256
scooby_st_size 64
scooby_max_pcs 5
scooby_max_offsets 5
scooby_max_deltas 5
scooby_reward_none -4
scooby_reward_incorrect -8
scooby_reward_correct_untimely 12
scooby_reward_correct_timely 20
scooby_brain_zero_init 0
scooby_enable_reward_all 0
scooby_enable_track_multiple 0
scooby_enable_reward_out_of_bounds 1
scooby_reward_out_of_bounds -12
scooby_state_type 1
scooby_state_hash_type 11
scooby_access_debug 0
scooby_print_access_debug 0
scooby_print_access_debug_pc deadbeef
scooby_print_access_debug_pc_count 0
scooby_print_trace 0
scooby_enable_state_action_stats 1
scooby_enable_reward_tracker_hit 0
scooby_reward_tracker_hit -2
scooby_enable_featurewise_engine 1
scooby_pref_degree 1
scooby_enable_dyn_degree 1
scooby_max_to_avg_q_thresholds 0.5,1,2,
scooby_dyn_degrees 1,2,4,4,
scooby_multi_deg_select_type 2
scooby_last_pref_offset_conf_thresholds 1,3,8,
scooby_dyn_degrees_type2 1,2,4,6,
scooby_action_tracker_size 2
scooby_high_bw_thresh 4
scooby_enable_hbw_reward 1
scooby_reward_hbw_correct_timely 20
scooby_reward_hbw_correct_untimely 12
scooby_reward_hbw_incorrect -14
scooby_reward_hbw_none -2
scooby_reward_hbw_out_of_bounds -12
scooby_reward_hbw_tracker_hit -2
scooby_last_pref_offset_conf_thresholds_hbw 1,3,8,
scooby_dyn_degrees_type2_hbw 1,2,4,6,

le_enable_trace 0
le_trace_interval 0
le_trace_file_name 
le_trace_state 0
le_enable_score_plot 0
le_plot_file_name 
le_plot_actions 
le_enable_action_trace 0
le_action_trace_interval 0
le_action_trace_name 
le_enable_action_plot 0

le_featurewise_active_features PC, PC_Delta
le_featurewise_num_tilings 3,3,
le_featurewise_num_tiles 128,128,
le_featurewise_hash_types 2,2,
le_featurewise_enable_tiling_offset 1,1,
le_featurewise_max_q_thresh 0.5
le_featurewise_enable_action_fallback 1
le_featurewise_feature_weights 1,1,
le_featurewise_enable_dynamic_weight 0
le_featurewise_weight_gradient 0.001
le_featurewise_disable_adjust_weight_all_features_align 1
le_featurewise_selective_update 0
le_featurewise_pooling_type 2
le_featurewise_enable_dyn_action_fallback 1
le_featurewise_bw_acc_check_level 1
le_featurewise_acc_thresh 2
le_featurewise_enable_trace 0
le_featurewise_trace_feature_type 0
le_featurewise_trace_feature 
le_featurewise_trace_interval 0
le_featurewise_trace_record_count 0
le_featurewise_trace_file_name 
le_featurewise_enable_score_plot 0
le_featurewise_plot_actions 
le_featurewise_plot_file_name 


Heartbeat CPU  0 instructions:    1000002 cycles:     713243 heartbeat IPC: 1.40205 cumulative IPC: 1.40205 (Simulation time: 0 hr 0 min 2 sec) 
Heartbeat CPU  0 instructions:    2000000 cycles:    1389109 heartbeat IPC: 1.47958 cumulative IPC: 1.43977 (Simulation time: 0 hr 0 min 4 sec) 
Heartbeat CPU  0 instructions:    3000001 cycles:    2054834 heartbeat IPC: 1.50212 cumulative IPC: 1.45997 (Simulation time: 0 hr 0 min 6 sec) 
Heartbeat CPU  0 instructions:    4000000 cycles:    2715535 heartbeat IPC: 1.51354 cumulative IPC: 1.47301 (Simulation time: 0 hr 0 min 8 sec) 
Heartbeat CPU  0 instructions:    5000000 cycles:    3372188 heartbeat IPC: 1.52287 cumulative IPC: 1.48272 (Simulation time: 0 hr 0 min 10 sec) 
Heartbeat CPU  0 instructions:    6000000 cycles:    4035550 heartbeat IPC: 1.50747 cumulative IPC: 1.48679 (Simulation time: 0 hr 0 min 11 sec) 
Heartbeat CPU  0 instructions:    7000002 cycles:    4691849 heartbeat IPC: 1.52370 cumulative IPC: 1.49195 (Simulation time: 0 hr 0 min 13 sec) 
Heartbeat CPU  0 instructions:    8000000 cycles:    5305988 heartbeat IPC: 1.62829 cumulative IPC: 1.50773 (Simulation time: 0 hr 0 min 15 sec) 
Heartbeat CPU  0 instructions:    9000000 cycles:    5823417 heartbeat IPC: 1.93263 cumulative IPC: 1.54548 (Simulation time: 0 hr 0 min 17 sec) 
Heartbeat CPU  0 instructions:   10000000 cycles:    6342347 heartbeat IPC: 1.92704 cumulative IPC: 1.57670 (Simulation time: 0 hr 0 min 19 sec) 

Warmup complete CPU  0 instructions:   10000004 cycles:    6342348 (Simulation time: 0 hr 0 min 19 sec) 

Heartbeat CPU  0 instructions:   11000000 cycles:    8269897 heartbeat IPC: 0.51879 cumulative IPC: 0.51879 (Simulation time: 0 hr 0 min 22 sec) 
Heartbeat CPU  0 instructions:   12000000 cycles:   10437764 heartbeat IPC: 0.46128 cumulative IPC: 0.48835 (Simulation time: 0 hr 0 min 24 sec) 
Heartbeat CPU  0 instructions:   13000002 cycles:   13289201 heartbeat IPC: 0.35070 cumulative IPC: 0.43185 (Simulation time: 0 hr 0 min 27 sec) 
Heartbeat CPU  0 instructions:   14000000 cycles:   16299215 heartbeat IPC: 0.33222 cumulative IPC: 0.40173 (Simulation time: 0 hr 0 min 30 sec) 
Heartbeat CPU  0 instructions:   15000001 cycles:   19295478 heartbeat IPC: 0.33375 cumulative IPC: 0.38601 (Simulation time: 0 hr 0 min 33 sec) 
Heartbeat CPU  0 instructions:   16000000 cycles:   22235417 heartbeat IPC: 0.34014 cumulative IPC: 0.37752 (Simulation time: 0 hr 0 min 36 sec) 
Heartbeat CPU  0 instructions:   17000001 cycles:   25120970 heartbeat IPC: 0.34655 cumulative IPC: 0.37276 (Simulation time: 0 hr 0 min 39 sec) 
Heartbeat CPU  0 instructions:   18000001 cycles:   27968194 heartbeat IPC: 0.35122 cumulative IPC: 0.36993 (Simulation time: 0 hr 0 min 42 sec) 
Heartbeat CPU  0 instructions:   19000001 cycles:   30767212 heartbeat IPC: 0.35727 cumulative IPC: 0.36848 (Simulation time: 0 hr 0 min 45 sec) 
Heartbeat CPU  0 instructions:   20000000 cycles:   33523447 heartbeat IPC: 0.36281 cumulative IPC: 0.36790 (Simulation time: 0 hr 0 min 47 sec) 
Heartbeat CPU  0 instructions:   21000002 cycles:   36242048 heartbeat IPC: 0.36784 cumulative IPC: 0.36790 (Simulation time: 0 hr 0 min 50 sec) 
Heartbeat CPU  0 instructions:   22000000 cycles:   38931499 heartbeat IPC: 0.37182 cumulative IPC: 0.36822 (Simulation time: 0 hr 0 min 53 sec) 
Heartbeat CPU  0 instructions:   23000003 cycles:   41587972 heartbeat IPC: 0.37644 cumulative IPC: 0.36884 (Simulation time: 0 hr 0 min 56 sec) 
Heartbeat CPU  0 instructions:   24000000 cycles:   44207742 heartbeat IPC: 0.38171 cumulative IPC: 0.36973 (Simulation time: 0 hr 0 min 59 sec) 
Heartbeat CPU  0 instructions:   25000000 cycles:   46801656 heartbeat IPC: 0.38552 cumulative IPC: 0.37074 (Simulation time: 0 hr 1 min 2 sec) 
Heartbeat CPU  0 instructions:   26000000 cycles:   49378005 heartbeat IPC: 0.38815 cumulative IPC: 0.37178 (Simulation time: 0 hr 1 min 4 sec) 
Heartbeat CPU  0 instructions:   27000000 cycles:   51936152 heartbeat IPC: 0.39091 cumulative IPC: 0.37286 (Simulation time: 0 hr 1 min 7 sec) 
Heartbeat CPU  0 instructions:   28000000 cycles:   54467163 heartbeat IPC: 0.39510 cumulative IPC: 0.37403 (Simulation time: 0 hr 1 min 10 sec) 
Heartbeat CPU  0 instructions:   29000003 cycles:   56994823 heartbeat IPC: 0.39562 cumulative IPC: 0.37511 (Simulation time: 0 hr 1 min 13 sec) 
Heartbeat CPU  0 instructions:   30000002 cycles:   59496294 heartbeat IPC: 0.39976 cumulative IPC: 0.37627 (Simulation time: 0 hr 1 min 16 sec) 
Heartbeat CPU  0 instructions:   31000003 cycles:   61983602 heartbeat IPC: 0.40204 cumulative IPC: 0.37742 (Simulation time: 0 hr 1 min 18 sec) 
Heartbeat CPU  0 instructions:   32000000 cycles:   64440210 heartbeat IPC: 0.40706 cumulative IPC: 0.37867 (Simulation time: 0 hr 1 min 21 sec) 
Heartbeat CPU  0 instructions:   33000001 cycles:   66898463 heartbeat IPC: 0.40679 cumulative IPC: 0.37981 (Simulation time: 0 hr 1 min 24 sec) 
Heartbeat CPU  0 instructions:   34000001 cycles:   69337490 heartbeat IPC: 0.41000 cumulative IPC: 0.38098 (Simulation time: 0 hr 1 min 27 sec) 
Heartbeat CPU  0 instructions:   35000003 cycles:   71761672 heartbeat IPC: 0.41251 cumulative IPC: 0.38215 (Simulation time: 0 hr 1 min 30 sec) 
Heartbeat CPU  0 instructions:   36000000 cycles:   74146024 heartbeat IPC: 0.41940 cumulative IPC: 0.38346 (Simulation time: 0 hr 1 min 32 sec) 
Heartbeat CPU  0 instructions:   37000001 cycles:   76545117 heartbeat IPC: 0.41682 cumulative IPC: 0.38460 (Simulation time: 0 hr 1 min 35 sec) 
Heartbeat CPU  0 instructions:   38000000 cycles:   78910029 heartbeat IPC: 0.42285 cumulative IPC: 0.38585 (Simulation time: 0 hr 1 min 38 sec) 
Heartbeat CPU  0 instructions:   39000000 cycles:   81257219 heartbeat IPC: 0.42604 cumulative IPC: 0.38711 (Simulation time: 0 hr 1 min 41 sec) 
Heartbeat CPU  0 instructions:   40000000 cycles:   83589355 heartbeat IPC: 0.42879 cumulative IPC: 0.38836 (Simulation time: 0 hr 1 min 43 sec) 
Heartbeat CPU  0 instructions:   41000000 cycles:   85925999 heartbeat IPC: 0.42796 cumulative IPC: 0.38953 (Simulation time: 0 hr 1 min 46 sec) 
Heartbeat CPU  0 instructions:   42000001 cycles:   88017964 heartbeat IPC: 0.47802 cumulative IPC: 0.39179 (Simulation time: 0 hr 1 min 49 sec) 
Heartbeat CPU  0 instructions:   43000002 cycles:   89369137 heartbeat IPC: 0.74010 cumulative IPC: 0.39746 (Simulation time: 0 hr 1 min 51 sec) 
Heartbeat CPU  0 instructions:   44000000 cycles:   90709615 heartbeat IPC: 0.74600 cumulative IPC: 0.40300 (Simulation time: 0 hr 1 min 53 sec) 
Heartbeat CPU  0 instructions:   45000000 cycles:   92067374 heartbeat IPC: 0.73651 cumulative IPC: 0.40828 (Simulation time: 0 hr 1 min 55 sec) 
Heartbeat CPU  0 instructions:   46000000 cycles:   93408443 heartbeat IPC: 0.74567 cumulative IPC: 0.41348 (Simulation time: 0 hr 1 min 58 sec) 
Heartbeat CPU  0 instructions:   47000000 cycles:   94783997 heartbeat IPC: 0.72698 cumulative IPC: 0.41835 (Simulation time: 0 hr 2 min 0 sec) 
Heartbeat CPU  0 instructions:   48000000 cycles:   96204320 heartbeat IPC: 0.70407 cumulative IPC: 0.42287 (Simulation time: 0 hr 2 min 2 sec) 
Heartbeat CPU  0 instructions:   49000000 cycles:   97613710 heartbeat IPC: 0.70953 cumulative IPC: 0.42730 (Simulation time: 0 hr 2 min 4 sec) 
Heartbeat CPU  0 instructions:   50000001 cycles:   99082451 heartbeat IPC: 0.68086 cumulative IPC: 0.43131 (Simulation time: 0 hr 2 min 6 sec) 
Heartbeat CPU  0 instructions:   51000003 cycles:  100574173 heartbeat IPC: 0.67037 cumulative IPC: 0.43510 (Simulation time: 0 hr 2 min 8 sec) 
Heartbeat CPU  0 instructions:   52000000 cycles:  102091774 heartbeat IPC: 0.65893 cumulative IPC: 0.43864 (Simulation time: 0 hr 2 min 11 sec) 
Heartbeat CPU  0 instructions:   53000000 cycles:  103650162 heartbeat IPC: 0.64169 cumulative IPC: 0.44190 (Simulation time: 0 hr 2 min 13 sec) 
Heartbeat CPU  0 instructions:   54000000 cycles:  105291362 heartbeat IPC: 0.60931 cumulative IPC: 0.44467 (Simulation time: 0 hr 2 min 15 sec) 
Heartbeat CPU  0 instructions:   55000000 cycles:  106961222 heartbeat IPC: 0.59885 cumulative IPC: 0.44723 (Simulation time: 0 hr 2 min 18 sec) 
Heartbeat CPU  0 instructions:   56000000 cycles:  108691340 heartbeat IPC: 0.57800 cumulative IPC: 0.44944 (Simulation time: 0 hr 2 min 20 sec) 
Heartbeat CPU  0 instructions:   57000000 cycles:  110492701 heartbeat IPC: 0.55514 cumulative IPC: 0.45127 (Simulation time: 0 hr 2 min 22 sec) 
Heartbeat CPU  0 instructions:   58000000 cycles:  112293394 heartbeat IPC: 0.55534 cumulative IPC: 0.45304 (Simulation time: 0 hr 2 min 25 sec) 
Heartbeat CPU  0 instructions:   59000000 cycles:  114246489 heartbeat IPC: 0.51201 cumulative IPC: 0.45411 (Simulation time: 0 hr 2 min 27 sec) 
Heartbeat CPU  0 instructions:   60000000 cycles:  116409836 heartbeat IPC: 0.46225 cumulative IPC: 0.45427 (Simulation time: 0 hr 2 min 30 sec) 
Finished CPU 0 instructions: 50000001 cycles: 110067505 cumulative IPC: 0.45427 (Simulation time: 0 hr 2 min 30 sec) 

ChampSim completed all CPUs

[ROI Statistics]
Core_0_instructions 50000001
Core_0_cycles 110067505
Core_0_IPC 0.45427

Core_0_branch_prediction_accuracy 99.30325
Core_0_branch_MPKI 1.81520
Core_0_average_ROB_occupancy_at_mispredict 120.99273

Core_0_L1D_total_access 11986502
Core_0_L1D_total_hit 10017779
Core_0_L1D_total_miss 1968723
Core_0_L1D_loads 8342274
Core_0_L1D_load_hit 6468651
Core_0_L1D_load_miss 1873623
Core_0_L1D_RFOs 3644228
Core_0_L1D_RFO_hit 3549128
Core_0_L1D_RFO_miss 95100
Core_0_L1D_prefetches 0
Core_0_L1D_prefetch_hit 0
Core_0_L1D_prefetch_miss 0
Core_0_L1D_writebacks 0
Core_0_L1D_writeback_hit 0
Core_0_L1D_writeback_miss 0
Core_0_L1D_prefetch_requested 0
Core_0_L1D_prefetch_dropped 0
Core_0_L1D_prefetch_issued 0
Core_0_L1D_prefetch_filled 0
Core_0_L1D_prefetch_useful 0
Core_0_L1D_prefetch_useless 0
Core_0_L1D_prefetch_late 0
Core_0_L1D_average_miss_latency 27.93971

Core_0_L1D_rq_access 15370475
Core_0_L1D_rq_forward 0
Core_0_L1D_rq_merged 6845292
Core_0_L1D_rq_to_cache 8524258
Core_0_L1D_rq_full 0

Core_0_L1D_wq_access 3888410
Core_0_L1D_wq_forward 925
Core_0_L1D_wq_merged 29205
Core_0_L1D_wq_to_cache 3859205
Core_0_L1D_wq_full 949

Core_0_L1D_pq_access 0
Core_0_L1D_pq_forward 0
Core_0_L1D_pq_merged 0
Core_0_L1D_pq_to_cache 0
Core_0_L1D_pq_full 0

Core_0_L1D_acc_epochs 113548
Core_0_L1D_acc_level_0 113548
Core_0_L1D_acc_level_1 0
Core_0_L1D_acc_level_2 0
Core_0_L1D_acc_level_3 0
Core_0_L1D_acc_level_4 0
Core_0_L1D_acc_level_5 0
Core_0_L1D_acc_level_6 0
Core_0_L1D_acc_level_7 0
Core_0_L1D_acc_level_8 0
Core_0_L1D_acc_level_9 0

Core_0_L1I_total_access 21257264
Core_0_L1I_total_hit 21127695
Core_0_L1I_total_miss 129569
Core_0_L1I_loads 21257264
Core_0_L1I_load_hit 21127695
Core_0_L1I_load_miss 129569
Core_0_L1I_RFOs 0
Core_0_L1I_RFO_hit 0
Core_0_L1I_RFO_miss 0
Core_0_L1I_prefetches 0
Core_0_L1I_prefetch_hit 0
Core_0_L1I_prefetch_miss 0
Core_0_L1I_writebacks 0
Core_0_L1I_writeback_hit 0
Core_0_L1I_writeback_miss 0
Core_0_L1I_prefetch_requested 0
Core_0_L1I_prefetch_dropped 0
Core_0_L1I_prefetch_issued 0
Core_0_L1I_prefetch_filled 0
Core_0_L1I_prefetch_useful 0
Core_0_L1I_prefetch_useless 0
Core_0_L1I_prefetch_late 0
Core_0_L1I_average_miss_latency 15.07794

Core_0_L1I_rq_access 50000004
Core_0_L1I_rq_forward 0
Core_0_L1I_rq_merged 28636578
Core_0_L1I_rq_to_cache 21363426
Core_0_L1I_rq_full 0

Core_0_L1I_wq_access 0
Core_0_L1I_wq_forward 0
Core_0_L1I_wq_merged 0
Core_0_L1I_wq_to_cache 0
Core_0_L1I_wq_full 0

Core_0_L1I_pq_access 0
Core_0_L1I_pq_forward 0
Core_0_L1I_pq_merged 0
Core_0_L1I_pq_to_cache 0
Core_0_L1I_pq_full 0

Core_0_L1I_acc_epochs 113548
Core_0_L1I_acc_level_0 113548
Core_0_L1I_acc_level_1 0
Core_0_L1I_acc_level_2 0
Core_0_L1I_acc_level_3 0
Core_0_L1I_acc_level_4 0
Core_0_L1I_acc_level_5 0
Core_0_L1I_acc_level_6 0
Core_0_L1I_acc_level_7 0
Core_0_L1I_acc_level_8 0
Core_0_L1I_acc_level_9 0

Core_0_L2C_total_access 4634319
Core_0_L2C_total_hit 3709218
Core_0_L2C_total_miss 925101
Core_0_L2C_loads 2003181
Core_0_L2C_load_hit 1559190
Core_0_L2C_load_miss 443991
Core_0_L2C_RFOs 95100
Core_0_L2C_RFO_hit 23528
Core_0_L2C_RFO_miss 71572
Core_0_L2C_prefetches 2380397
Core_0_L2C_prefetch_hit 1970925
Core_0_L2C_prefetch_miss 409472
Core_0_L2C_writebacks 155641
Core_0_L2C_writeback_hit 155575
Core_0_L2C_writeback_miss 66
Core_0_L2C_prefetch_requested 3293194
Core_0_L2C_prefetch_dropped 3
Core_0_L2C_prefetch_issued 3293191
Core_0_L2C_prefetch_filled 498017
Core_0_L2C_prefetch_useful 130071
Core_0_L2C_prefetch_useless 366730
Core_0_L2C_prefetch_late 13534
Core_0_L2C_average_miss_latency 46.48201

Core_0_L2C_rq_access 2098292
Core_0_L2C_rq_forward 0
Core_0_L2C_rq_merged 0
Core_0_L2C_rq_to_cache 2098281
Core_0_L2C_rq_full 0

Core_0_L2C_wq_access 155641
Core_0_L2C_wq_forward 12
Core_0_L2C_wq_merged 0
Core_0_L2C_wq_to_cache 155641
Core_0_L2C_wq_full 0

Core_0_L2C_pq_access 3293191
Core_0_L2C_pq_forward 0
Core_0_L2C_pq_merged 367410
Core_0_L2C_pq_to_cache 2925780
Core_0_L2C_pq_full 0

Core_0_L2C_acc_epochs 113548
Core_0_L2C_acc_level_0 61939
Core_0_L2C_acc_level_1 17502
Core_0_L2C_acc_level_2 14169
Core_0_L2C_acc_level_3 7085
Core_0_L2C_acc_level_4 2860
Core_0_L2C_acc_level_5 4466
Core_0_L2C_acc_level_6 1586
Core_0_L2C_acc_level_7 1116
Core_0_L2C_acc_level_8 843
Core_0_L2C_acc_level_9 1982

Core_0_LLC_total_access 1027278
Core_0_LLC_total_hit 941902
Core_0_LLC_total_miss 85376
Core_0_LLC_loads 430715
Core_0_LLC_load_hit 425211
Core_0_LLC_load_miss 5504
Core_0_LLC_RFOs 71330
Core_0_LLC_RFO_hit 13855
Core_0_LLC_RFO_miss 57475
Core_0_LLC_prefetches 422984
Core_0_LLC_prefetch_hit 408036
Core_0_LLC_prefetch_miss 14948
Core_0_LLC_writebacks 102249
Core_0_LLC_writeback_hit 94800
Core_0_LLC_writeback_miss 7449
Core_0_LLC_prefetch_requested 0
Core_0_LLC_prefetch_dropped 0
Core_0_LLC_prefetch_issued 0
Core_0_LLC_prefetch_filled 23941
Core_0_LLC_prefetch_useful 4765
Core_0_LLC_prefetch_useless 9765
Core_0_LLC_prefetch_late 0
Core_0_LLC_average_miss_latency 179.28305

Core_0_LLC_rq_access 502047
Core_0_LLC_rq_forward 0
Core_0_LLC_rq_merged 0
Core_0_LLC_rq_to_cache 502045
Core_0_LLC_rq_full 0

Core_0_LLC_wq_access 102249
Core_0_LLC_wq_forward 6
Core_0_LLC_wq_merged 0
Core_0_LLC_wq_to_cache 102249
Core_0_LLC_wq_full 0

Core_0_LLC_pq_access 511551
Core_0_LLC_pq_forward 0
Core_0_LLC_pq_merged 0
Core_0_LLC_pq_to_cache 511547
Core_0_LLC_pq_full 0

Core_0_LLC_acc_epochs 113682
Core_0_LLC_acc_level_0 110284
Core_0_LLC_acc_level_1 1204
Core_0_LLC_acc_level_2 978
Core_0_LLC_acc_level_3 149
Core_0_LLC_acc_level_4 20
Core_0_LLC_acc_level_5 759
Core_0_LLC_acc_level_6 40
Core_0_LLC_acc_level_7 54
Core_0_LLC_acc_level_8 8
Core_0_LLC_acc_level_9 186

Core_0_major_page_fault 0
Core_0_minor_page_fault 2037

scooby_st_lookup 2401113
scooby_st_hit 1389637
scooby_st_evict 1011412
scooby_st_insert 1011476
scooby_st_streaming 0

scooby_predict_called 2401113
scooby_predict_out_of_bounds 45024
scooby_predict_action_1 2026946
scooby_predict_issue_action_1 1924392
scooby_predict_hit_action_1 102554
scooby_predict_out_of_bounds_action_1 29507
scooby_predict_action_3 63839
scooby_predict_issue_action_3 40134
scooby_predict_hit_action_3 23705
scooby_predict_out_of_bounds_action_3 914
scooby_predict_action_4 37296
scooby_predict_issue_action_4 27088
scooby_predict_hit_action_4 10208
scooby_predict_out_of_bounds_action_4 657
scooby_predict_action_5 29524
scooby_predict_issue_action_5 24020
scooby_predict_hit_action_5 5504
scooby_predict_out_of_bounds_action_5 855
scooby_predict_action_10 12342
scooby_predict_issue_action_10 10232
scooby_predict_hit_action_10 2110
scooby_predict_out_of_bounds_action_10 879
scooby_predict_action_11 25223
scooby_predict_issue_action_11 18866
scooby_predict_hit_action_11 6357
scooby_predict_out_of_bounds_action_11 1618
scooby_predict_action_12 8357
scooby_predict_issue_action_12 6762
scooby_predict_hit_action_12 1595
scooby_predict_out_of_bounds_action_12 944
scooby_predict_action_22 8341
scooby_predict_issue_action_22 6347
scooby_predict_hit_action_22 1994
scooby_predict_out_of_bounds_action_22 1908
scooby_predict_action_23 3746
scooby_predict_issue_action_23 3031
scooby_predict_hit_action_23 715
scooby_predict_out_of_bounds_action_23 1615
scooby_predict_action_30 4455
scooby_predict_issue_action_30 3830
scooby_predict_hit_action_30 625
scooby_predict_out_of_bounds_action_30 2244
scooby_predict_action_32 2732
scooby_predict_issue_action_32 2232
scooby_predict_hit_action_32 500
scooby_predict_out_of_bounds_action_32 2040
scooby_predict_action_-1 80535
scooby_predict_issue_action_-1 49773
scooby_predict_hit_action_-1 30762
scooby_predict_out_of_bounds_action_-1 703
scooby_predict_action_-3 22874
scooby_predict_issue_action_-3 18295
scooby_predict_hit_action_-3 4579
scooby_predict_out_of_bounds_action_-3 532
scooby_predict_action_-6 16875
scooby_predict_issue_action_-6 12981
scooby_predict_hit_action_-6 3894
scooby_predict_out_of_bounds_action_-6 608
scooby_predict_action_0 13004
scooby_predict_issue_action_0 0
scooby_predict_hit_action_0 0
scooby_predict_out_of_bounds_action_0 0
scooby_predict_multi_deg_called 335085
scooby_predict_predicted 3293194
scooby_predict_multi_deg 1145211
scooby_predict_multi_deg_2 328519
scooby_predict_multi_deg_3 243377
scooby_predict_multi_deg_4 239397
scooby_predict_multi_deg_5 168912
scooby_predict_multi_deg_6 165006
scooby_predict_multi_deg_7 0
scooby_predict_multi_deg_8 0
scooby_predict_multi_deg_9 0
scooby_predict_multi_deg_10 0
scooby_predict_multi_deg_11 0
scooby_predict_multi_deg_12 0
scooby_predict_multi_deg_13 0
scooby_predict_multi_deg_14 0
scooby_predict_multi_deg_15 0
scooby_predict_multi_deg_16 0

scooby_selected_deg_1 1812898
scooby_selected_deg_2 83267
scooby_selected_deg_3 0
scooby_selected_deg_4 67852
scooby_selected_deg_5 0
scooby_selected_deg_6 183966
scooby_selected_deg_7 0
scooby_selected_deg_8 0
scooby_selected_deg_9 0
scooby_selected_deg_10 0
scooby_selected_deg_11 0
scooby_selected_deg_12 0
scooby_selected_deg_13 0
scooby_selected_deg_14 0
scooby_selected_deg_15 0
scooby_selected_deg_16 0

scooby_state_638ec0|0|0 14951,5,13,10,4,4,5,6,11,6,3,18,1,4,6,15047,
scooby_state_638ec0|20|0 13415,1,3,12,4,4,3,2,2,3,3,24,3,2,1,13482,
scooby_state_638ec0|44|0 12627,5,9,12,1,3,4,4,3,6,2,18,2,4,2,12702,
scooby_state_638ec0|9|0 11990,3,4,16,1,0,3,5,4,5,2,27,1,3,2,12066,
scooby_state_638ec0|33|0 11927,1,4,9,5,9,1,4,4,3,3,12,2,6,2,11992,
scooby_state_638ec0|16|0 11705,3,5,11,8,7,8,1,4,3,3,12,3,3,5,11781,
scooby_state_638ec0|56|0 11223,2,7,9,4,2,4,4,1,6,5,11,0,5,5,11288,
scooby_state_638ec0|60|0 11171,3,3,15,3,2,1,5,6,2,2,20,4,3,0,11240,
scooby_state_638ec0|63|0 11190,5,7,3,2,3,3,0,2,3,3,8,3,3,4,11239,
scooby_state_638ebd|29|0 9965,37,29,4,3,9,4,2,2,1,4,213,2,4,4,10283,
scooby_state_638ebd|43|0 9573,27,13,1,1,10,3,1,3,3,4,91,3,3,4,9740,
scooby_state_638ec0|40|0 9562,5,3,13,3,3,4,7,2,0,4,17,2,5,0,9630,
scooby_state_638ebd|9|0 9442,33,16,0,1,24,2,2,3,5,0,61,5,1,3,9598,
scooby_state_638ec0|49|0 9497,1,6,2,3,8,4,1,2,2,3,5,2,7,4,9547,
scooby_state_638ec0|17|0 9445,2,6,6,1,3,5,1,5,2,1,14,2,1,5,9499,
scooby_state_638ec0|43|0 9384,4,2,4,6,2,4,1,0,2,6,6,1,8,0,9430,
scooby_state_638ebd|21|0 9067,23,26,5,2,5,2,2,2,1,3,182,1,3,2,9326,
scooby_state_638ec0|41|0 9104,1,3,9,1,2,1,4,1,3,2,15,3,1,10,9160,
scooby_state_638ebd|20|0 8781,5,15,4,5,9,1,3,5,3,1,50,2,3,2,8889,
scooby_state_638ec0|25|0 8825,1,2,11,2,6,2,3,4,0,2,22,1,5,2,8888,
scooby_state_638ec0|61|0 8779,2,2,10,4,3,3,3,2,2,3,15,1,2,2,8833,
scooby_state_638ec0|47|0 8771,3,4,3,3,7,1,1,5,3,3,2,3,3,4,8816,
scooby_state_638ebd|17|0 8577,3,6,5,3,4,0,4,2,3,5,133,2,2,6,8755,
scooby_state_638ec0|35|0 8682,1,1,15,4,2,2,4,1,4,1,21,3,4,1,8746,
scooby_state_638ec0|24|0 8700,2,3,1,4,0,2,1,1,3,1,3,4,4,4,8733,
scooby_state_638ebd|19|0 8549,2,17,2,2,4,2,3,4,5,2,120,0,2,4,8718,
scooby_state_638ebd|38|0 8498,2,7,3,4,3,3,4,4,3,4,172,0,2,5,8714,
scooby_state_638ec0|2|0 8662,3,3,8,1,0,2,1,3,6,2,9,1,2,4,8707,
scooby_state_638ec0|26|0 8652,0,6,4,2,3,1,1,5,2,2,11,2,6,4,8701,
scooby_state_638ec0|52|0 8631,4,7,10,2,3,6,2,3,6,2,11,2,0,4,8693,
scooby_state_638ebd|59|0 8437,39,6,0,1,10,0,2,0,1,1,102,6,1,5,8611,
scooby_state_638ec0|48|0 8152,2,2,10,1,3,5,2,3,3,4,10,1,2,3,8203,
scooby_state_638ec0|59|0 8111,2,7,5,0,1,4,2,4,2,0,12,1,2,2,8155,
scooby_state_638ec0|21|0 8052,6,5,8,5,3,4,1,5,4,0,7,1,3,4,8108,
scooby_state_638ec0|38|0 7993,3,5,6,0,0,1,3,3,3,1,10,0,4,3,8035,
scooby_state_638ebd|4|0 7728,4,15,2,2,11,4,1,6,5,2,133,3,1,4,7921,
scooby_state_638ec0|10|0 7855,0,4,10,1,7,4,3,2,0,3,13,2,5,1,7910,
scooby_state_638ec0|46|0 7849,2,6,12,3,3,4,3,2,3,1,14,0,4,3,7909,
scooby_state_638ec0|4|0 7813,1,9,7,3,4,4,2,2,6,2,17,2,1,5,7878,
scooby_state_638ec0|36|0 7753,3,3,11,0,3,3,2,4,2,1,13,2,0,4,7804,
scooby_state_638ebd|57|0 7595,22,17,3,3,7,1,1,2,3,1,140,0,3,3,7801,
scooby_state_638ec0|32|0 7260,2,3,14,2,0,0,3,0,1,1,19,2,2,3,7312,
scooby_state_638ec0|8|0 7193,2,2,4,1,4,3,4,2,1,3,15,3,1,1,7239,
scooby_state_638ec0|51|0 7164,3,6,3,1,1,3,0,2,3,3,6,3,2,2,7202,
scooby_state_638ec0|54|0 7139,4,0,7,2,1,3,2,2,1,3,11,3,1,0,7179,
scooby_state_638ec0|50|0 7102,0,2,0,1,1,0,1,5,0,1,6,2,6,1,7128,
scooby_state_638ebd|46|0 7068,6,10,3,3,4,2,3,2,5,2,17,0,1,1,7127,
scooby_state_638ebd|50|0 7000,15,10,1,1,5,1,4,2,2,4,76,1,2,1,7125,
scooby_state_638ec0|45|0 7088,1,2,5,2,2,1,4,1,0,3,11,0,2,2,7124,
scooby_state_638ebd|39|0 7000,20,22,0,2,9,0,2,2,1,2,51,3,2,1,7117,
scooby_state_638ec0|14|0 7070,1,4,5,0,1,3,2,1,1,3,15,3,3,2,7114,
scooby_state_638ebd|8|0 6976,11,15,2,1,12,1,2,0,1,1,84,6,1,0,7113,
scooby_state_638ebd|12|0 6984,21,10,0,1,7,1,2,2,2,1,73,2,3,1,7110,
scooby_state_638ec0|53|0 7078,2,2,2,4,2,1,1,2,1,2,7,2,3,0,7109,
scooby_state_638ec0|7|0 7063,2,2,8,3,2,3,3,1,7,0,13,1,1,0,7109,
scooby_state_638ec0|19|0 7075,2,3,3,0,2,3,1,2,2,1,8,3,1,2,7108,
scooby_state_638ed1|23|1 6946,6,10,2,7,36,2,4,3,28,3,5,5,3,4,7064,
scooby_state_638ed1|57|1 6689,2,6,3,4,17,2,3,2,46,0,5,3,5,9,6796,
scooby_state_64cc6c|25|1 6743,0,0,1,3,0,1,0,0,1,0,1,1,1,0,6752,
scooby_state_638ec0|58|0 6567,3,5,5,1,2,5,2,2,1,2,17,2,1,2,6617,
scooby_state_638ebd|49|0 6324,6,18,1,1,9,0,1,2,2,2,91,4,1,1,6463,
scooby_state_638ebd|53|0 6151,3,13,4,1,1,7,0,4,3,1,250,1,1,4,6444,
scooby_state_638ec0|13|0 6381,4,3,8,3,4,0,2,3,1,1,13,1,2,0,6426,
scooby_state_638ec0|42|0 6349,2,1,10,2,0,1,3,2,0,1,14,3,4,1,6393,
scooby_state_638eb0|47|1 6332,4,7,2,1,3,5,2,4,3,2,3,4,4,5,6381,
scooby_state_638ec0|12|0 6332,0,3,5,1,1,1,1,4,2,0,11,1,5,1,6368,
scooby_state_638ec0|5|0 6321,2,1,8,2,1,0,2,1,3,0,9,1,3,3,6357,
scooby_state_638ebd|18|0 6238,21,22,0,2,7,0,4,1,3,1,31,2,2,3,6337,
scooby_state_638ebd|51|0 6172,2,8,3,3,1,1,2,4,1,3,126,1,3,4,6334,
scooby_state_638ed1|21|1 6285,4,2,4,2,6,6,3,1,3,5,0,2,5,2,6330,
scooby_state_638ec0|55|0 6273,3,3,12,4,1,4,1,2,4,1,16,1,0,0,6325,
scooby_state_638ec0|18|0 6286,1,1,6,2,1,2,4,1,1,1,10,0,3,3,6322,
scooby_state_638ed1|34|1 6206,2,8,4,7,30,2,2,1,28,2,12,2,3,6,6315,
scooby_state_638ec0|11|0 6274,1,1,4,2,2,1,2,0,1,2,8,3,1,3,6305,
scooby_state_638ec0|34|0 6262,2,2,8,2,3,1,4,0,1,1,10,1,2,2,6301,
scooby_state_638eb0|30|1 6233,4,6,3,3,4,5,1,3,2,1,3,5,1,7,6281,
scooby_state_638ec0|22|0 6234,3,1,8,2,2,0,2,1,2,2,8,2,0,4,6271,
scooby_state_638ec0|28|0 6219,2,2,10,2,1,2,3,1,3,1,17,1,2,3,6269,
scooby_state_638ebd|60|0 6094,1,0,3,1,1,4,1,5,3,2,71,0,0,2,6188,
scooby_state_638ec0|37|0 6129,3,2,4,4,4,4,1,1,2,2,9,1,1,1,6168,
scooby_state_638ec0|62|0 6081,2,2,7,0,0,1,2,2,2,1,15,2,2,2,6121,
scooby_state_638ebd|26|0 5888,6,17,1,1,12,2,0,6,2,2,49,2,1,2,5991,
scooby_state_638ebd|28|0 5700,22,19,2,2,6,0,3,2,3,1,31,3,1,2,5797,
scooby_state_638ec0|3|0 5740,0,3,5,0,3,1,4,2,2,1,12,0,0,3,5776,
scooby_state_638ec0|29|0 5688,1,4,5,0,3,1,1,1,2,1,12,0,1,2,5722,
scooby_state_638ec0|57|0 5649,0,2,4,3,1,3,2,2,0,1,10,4,1,0,5682,
scooby_state_638ec0|1|0 5648,2,1,2,2,1,4,0,2,4,1,0,4,5,3,5679,
scooby_state_638ebd|37|0 5593,5,3,2,3,4,0,2,2,2,2,19,0,0,4,5641,
scooby_state_638ec0|39|0 5523,3,4,8,2,2,2,1,2,2,2,8,4,2,1,5566,
scooby_state_638ebd|41|0 5373,24,11,1,1,20,0,1,3,2,1,105,3,1,1,5547,
scooby_state_638ebd|55|0 5482,2,8,0,0,2,0,1,0,0,1,44,1,0,3,5544,
scooby_state_638ec0|6|0 5494,3,3,7,2,0,5,2,2,0,1,7,1,3,2,5532,
scooby_state_638ebd|0|0 5380,19,7,4,4,5,5,1,2,2,2,89,0,1,2,5523,
scooby_state_638ec0|53|1 5430,12,7,9,5,4,5,4,5,5,3,11,4,6,5,5515,
scooby_state_638ed1|6|1 5441,4,10,2,9,8,3,3,2,0,1,5,3,4,5,5500,
scooby_state_638ebd|25|0 5267,10,14,3,2,6,4,2,2,1,1,94,1,3,2,5412,
scooby_state_638ebd|42|0 5271,7,5,2,2,3,3,1,2,1,0,90,2,1,2,5392,
scooby_state_638eb0|14|1 5347,0,1,1,0,3,7,2,4,4,0,2,5,1,2,5379,
scooby_state_64cc6c|2|1 5268,1,1,1,1,1,0,1,0,0,0,1,0,1,1,5277,
scooby_state_638ebd|54|0 5185,12,5,2,1,2,2,4,1,2,3,25,1,0,3,5248,
scooby_state_638eb0|19|1 5133,4,4,2,3,1,3,3,1,2,0,4,3,2,6,5171,
scooby_state_638ebd|7|0 4835,43,7,0,0,3,0,2,1,0,1,119,0,1,2,5014,
scooby_state_64cc6c|54|1 5002,0,1,0,1,1,1,3,0,0,0,1,0,0,2,5012,
scooby_state_638ebd|30|0 4817,3,7,2,2,1,0,3,0,0,1,102,0,3,3,4944,
scooby_state_638ebd|63|0 4869,11,11,0,2,14,1,2,2,2,1,24,2,1,0,4942,
scooby_state_638ed1|36|1 4808,3,3,2,3,30,4,7,1,16,2,9,0,3,4,4895,
scooby_state_638ebd|61|0 4831,22,0,1,0,3,2,4,0,3,2,22,2,1,1,4894,
scooby_state_638ebd|34|0 4728,1,0,0,1,0,0,2,2,0,2,15,1,0,4,4756,
scooby_state_638ebd|35|0 4641,1,2,2,0,1,2,0,4,2,1,94,2,0,4,4756,
scooby_state_638ebd|44|0 4622,17,5,1,0,8,1,3,1,2,2,90,1,0,1,4754,
scooby_state_638eb0|21|1 4718,3,1,3,1,2,3,3,2,3,2,3,0,4,4,4752,
scooby_state_638ebd|32|0 4646,2,2,2,2,4,1,0,4,2,2,75,1,1,3,4747,
scooby_state_638ed1|50|1 4705,1,3,2,2,5,4,3,3,2,1,3,2,3,7,4746,
scooby_state_638ebd|10|0 4606,2,12,1,4,5,3,1,2,0,2,103,3,1,1,4746,
scooby_state_638ebd|27|0 4705,5,4,0,1,2,0,3,0,2,2,12,3,1,0,4740,
scooby_state_64cc6c|3|1 4679,0,0,0,0,1,2,1,1,0,0,2,1,0,1,4688,
scooby_state_638ec0|27|0 4640,0,4,3,0,0,3,1,1,1,0,5,0,1,5,4664,
scooby_state_638eb0|52|1 4578,4,3,3,3,3,2,3,0,1,2,1,2,3,3,4611,
scooby_state_638eb0|1|1 4456,3,0,2,2,3,2,2,0,2,1,3,2,4,5,4487,
scooby_state_64cc6c|20|1 4444,0,0,1,0,0,1,1,1,1,1,1,1,1,1,4454,
scooby_state_64cc6c|32|1 4397,0,1,0,1,0,0,0,0,0,1,1,0,1,0,4402,
scooby_state_64cc6c|21|1 4381,1,1,0,1,0,0,0,2,0,1,0,3,1,0,4391,
scooby_state_64cc6c|35|1 4294,0,0,1,0,1,1,1,1,0,0,0,0,1,0,4300,
scooby_state_64cc6c|15|1 4274,1,0,2,0,0,0,0,0,0,1,0,0,0,1,4279,
scooby_state_64cc6c|40|1 4207,0,2,0,0,1,0,0,0,2,0,0,1,0,2,4215,
scooby_state_64cc6c|29|1 4195,1,0,0,0,1,4,0,1,0,0,1,1,0,1,4205,
scooby_state_64cc6c|16|1 4173,0,0,1,0,0,0,0,0,1,1,1,0,0,0,4177,
scooby_state_638ec0|30|0 4127,1,0,11,0,1,0,3,0,2,0,16,3,1,0,4165,
scooby_state_638ed1|10|1 4086,5,6,1,8,12,1,1,2,26,2,5,3,2,3,4163,
scooby_state_638ebd|24|0 4050,17,2,1,2,3,1,3,1,2,3,23,0,0,1,4109,
scooby_state_64cc6c|19|1 4098,0,1,2,1,1,0,0,1,1,0,0,1,1,1,4108,
scooby_state_64cc6c|31|1 4069,0,0,0,1,0,0,1,0,1,0,2,0,0,1,4075,
scooby_state_638ebd|16|0 4014,14,1,1,1,4,0,0,1,1,1,29,1,0,1,4069,
scooby_state_638eb0|60|1 4025,3,1,2,5,1,0,1,0,0,2,3,2,1,3,4049,
scooby_state_638ed1|41|1 3969,6,10,0,7,29,2,2,3,0,0,10,2,1,5,4046,
scooby_state_64cc6c|30|1 4036,0,0,0,0,1,2,0,0,1,1,1,0,2,0,4044,
scooby_state_638ebd|40|0 3930,46,9,0,2,4,0,2,1,2,1,36,1,1,1,4036,
scooby_state_638ebd|58|0 3808,4,16,3,1,7,2,1,2,1,0,181,1,4,2,4033,
scooby_state_638ebd|6|0 3942,6,1,0,0,5,0,1,1,2,2,64,1,2,5,4032,
scooby_state_638ebd|5|0 3893,2,8,3,2,3,2,0,2,2,1,74,0,3,1,3996,
scooby_state_638ebd|45|0 3874,2,16,1,2,2,2,3,1,0,2,70,0,2,2,3979,
scooby_state_638ebd|1|0 3849,15,9,2,2,4,1,1,3,3,1,76,0,1,1,3968,
scooby_state_638ebd|23|0 3922,2,1,1,1,1,1,2,3,1,1,25,0,0,2,3963,
scooby_state_64cc6c|26|1 3958,0,0,1,1,0,0,0,0,1,1,0,0,0,0,3962,
scooby_state_638ed1|53|1 3877,1,3,2,7,25,0,0,1,27,1,3,4,3,4,3958,
scooby_state_638ec0|23|0 3935,1,3,6,1,0,0,1,1,2,0,6,1,0,1,3958,
scooby_state_638ebd|52|0 3841,20,16,0,1,0,0,0,0,2,0,73,0,2,2,3957,
scooby_state_638ed1|11|1 3906,4,8,1,5,10,4,2,4,0,2,4,1,2,3,3956,
scooby_state_638ec0|45|1 3907,7,4,2,3,6,2,4,4,3,1,9,1,0,3,3956,
scooby_state_638ed1|49|1 3902,2,2,2,6,16,1,3,1,1,2,0,5,2,2,3947,
scooby_state_638eb0|29|1 3916,4,4,1,1,2,1,2,2,4,1,2,2,2,2,3946,
scooby_state_64d0cc|25|0 3867,0,1,0,0,1,0,2,0,18,0,17,23,0,1,3930,
scooby_state_638eb0|5|1 3889,3,0,3,3,4,1,1,0,2,0,4,1,2,4,3917,
scooby_state_638eb0|46|1 3881,2,1,3,2,1,2,0,5,1,1,4,2,0,5,3910,
scooby_state_638eb0|10|1 3879,6,10,0,0,2,0,2,0,2,3,1,0,3,0,3908,
scooby_state_64cc6c|34|1 3859,0,0,0,0,2,1,0,0,0,0,0,1,0,1,3864,
scooby_state_64cc6c|33|1 3854,1,0,1,3,1,0,0,0,0,0,0,2,1,1,3864,
scooby_state_638ed1|62|1 3816,2,5,0,3,2,3,4,0,13,2,2,3,3,2,3860,
scooby_state_638eb0|33|1 3825,4,6,1,2,2,0,2,0,1,1,1,1,3,3,3852,
scooby_state_64cc6c|53|1 3828,0,0,0,0,1,0,0,0,0,0,1,0,0,0,3830,
scooby_state_64cc6c|55|1 3805,0,0,0,1,1,0,0,1,1,0,0,0,0,0,3809,
scooby_state_64cc6c|36|1 3802,0,0,0,0,0,0,0,0,0,0,2,0,1,0,3805,
scooby_state_638eb0|36|1 3748,4,7,2,2,1,1,1,0,0,2,1,2,2,3,3776,
scooby_state_64cc6c|47|1 3770,0,0,0,1,0,1,0,0,0,0,1,0,0,0,3773,
scooby_state_638ed1|17|1 3651,3,2,1,4,20,1,3,3,2,1,4,3,1,3,3702,
scooby_state_64cc6c|39|1 3677,0,0,0,0,0,0,2,0,1,0,2,0,4,3,3689,
scooby_state_64cc6c|52|1 3669,2,2,0,1,1,0,0,0,0,0,0,1,0,0,3676,
scooby_state_64cc6c|22|1 3627,1,0,1,1,2,0,0,1,1,0,0,0,0,0,3634,
scooby_state_638ed1|39|1 3564,3,6,2,5,33,1,0,2,2,1,7,3,0,3,3632,
scooby_state_64cc6c|51|1 3574,0,0,1,0,1,1,1,0,0,1,0,1,0,0,3580,
scooby_state_64cc6c|24|1 3573,0,0,0,1,1,0,0,0,0,0,0,0,1,1,3577,
scooby_state_638ebd|14|0 3511,3,9,0,0,4,0,1,0,0,0,30,2,1,3,3564,
scooby_state_64cc6c|43|1 3515,0,0,0,0,0,0,0,0,1,0,0,0,0,1,3517,
scooby_state_64cc6c|28|1 3501,0,0,0,0,0,3,1,0,1,0,0,0,0,2,3508,
scooby_state_64cc6c|0|0 3485,0,1,0,0,0,0,0,0,0,1,0,2,1,1,3491,
scooby_state_638ed1|1|1 3435,1,5,5,7,21,1,1,1,1,0,5,2,2,2,3489,
scooby_state_64cc6c|27|1 3433,0,0,0,0,2,0,1,0,0,1,1,1,0,0,3439,
scooby_state_64cc6c|62|1 3410,2,1,1,0,1,0,1,1,1,1,0,0,1,1,3421,
scooby_state_638ebd|3|0 3287,29,10,0,1,8,1,0,1,2,2,71,2,1,0,3415,
scooby_state_638ec0|31|0 3381,0,2,5,0,0,1,2,2,2,0,11,1,0,3,3410,
scooby_state_64cc6c|23|1 3369,1,1,0,0,1,1,0,0,0,1,1,0,0,0,3375,
scooby_state_638ebd|13|0 3291,4,1,0,0,0,0,3,0,0,4,6,0,0,0,3309,
scooby_state_64cc6c|41|1 3294,1,0,0,2,1,2,0,0,0,0,2,2,1,0,3305,
scooby_state_64cc6c|61|1 3295,0,1,0,1,1,0,1,1,0,0,1,1,1,0,3303,
scooby_state_64cc6c|58|1 3293,0,0,0,0,1,0,1,1,1,0,1,0,0,1,3299,
scooby_state_64cc6c|1|1 3266,0,1,0,0,1,1,1,0,1,0,0,0,0,0,3271,
scooby_state_64cc6c|60|1 3257,0,1,1,2,1,0,0,1,0,1,1,0,1,0,3266,
scooby_state_64cc6c|59|1 3264,0,0,0,0,0,0,0,0,1,0,1,0,0,0,3266,
scooby_state_638ec0|15|0 3223,0,2,2,0,2,0,1,1,1,1,6,0,0,1,3240,
scooby_state_638eb0|2|1 3220,3,0,1,5,1,0,1,0,1,0,1,2,0,4,3239,
scooby_state_638ebd|1|1 3054,20,0,4,3,2,3,4,2,3,1,132,5,1,4,3238,
scooby_state_638ebd|62|0 3180,2,5,1,1,1,1,2,1,1,2,40,1,0,0,3238,
scooby_state_64d0cc|24|0 3171,2,2,1,2,2,1,4,1,12,2,9,16,1,2,3228,
scooby_state_638ebd|11|0 3068,4,16,1,1,4,1,1,1,1,1,95,1,2,0,3197,
scooby_state_638ebd|22|0 3092,2,15,2,2,1,0,0,2,2,1,70,0,4,0,3193,
scooby_state_638ed1|25|1 3168,0,1,1,0,3,2,1,1,2,4,0,1,2,4,3190,
scooby_state_638ec0|8|1 3142,4,3,2,4,3,3,3,2,6,1,5,2,1,3,3184,
scooby_state_638ebd|33|0 3156,2,1,1,2,0,1,1,1,2,1,6,1,0,0,3175,
scooby_state_638ed1|20|1 3126,0,0,3,2,2,2,0,0,24,1,1,2,3,2,3168,
scooby_state_638ebd|39|1 3024,2,10,3,1,3,3,2,4,3,1,101,7,2,2,3168,
scooby_state_638eb0|22|1 3147,1,0,3,3,1,1,1,0,0,0,3,1,2,5,3168,
scooby_state_638ed1|45|1 3109,0,3,0,0,20,2,2,2,14,1,6,2,2,3,3166,
scooby_state_638eb0|20|1 3145,2,4,0,3,1,1,1,2,1,1,1,1,2,1,3166,
scooby_state_638ed1|63|1 3101,2,2,1,0,30,2,0,1,13,2,6,2,0,3,3165,
scooby_state_638ebd|55|1 3089,17,4,4,1,3,0,1,1,3,3,21,5,5,8,3165,
scooby_state_638ed1|52|1 3122,5,5,1,4,1,1,1,0,14,0,2,3,1,3,3163,
scooby_state_638ebd|42|-1 3092,15,3,0,3,6,4,3,2,0,1,24,2,1,7,3163,
scooby_state_638ed1|9|1 3126,4,3,3,4,3,1,2,0,3,1,1,3,1,4,3159,
scooby_state_638eb0|11|1 3134,3,1,2,5,1,0,3,0,2,0,0,3,2,3,3159,
scooby_state_638eb0|13|1 3137,2,0,2,2,2,2,3,1,1,1,1,1,2,2,3159,
scooby_state_638eb0|15|1 3135,1,1,3,2,1,2,1,1,1,0,3,2,2,3,3158,
scooby_state_638ebd|61|1 3122,0,7,1,2,2,3,2,2,1,3,4,1,4,3,3157,
scooby_state_638eb0|38|1 3126,2,0,0,2,4,1,2,0,1,0,1,1,2,3,3145,
scooby_state_638eb0|55|1 3112,4,4,1,0,2,2,1,1,2,5,1,1,3,1,3140,
scooby_state_638ec0|22|1 3093,5,0,2,2,5,3,1,0,4,1,8,3,4,2,3133,
scooby_state_638ebd|5|1 2916,22,15,5,2,6,3,5,0,4,1,132,14,0,2,3127,
scooby_state_638eb0|42|1 3095,4,12,0,0,0,1,2,1,0,5,0,0,1,1,3122,
scooby_state_638eb0|41|1 3090,2,3,2,1,2,0,2,0,2,1,1,0,2,1,3109,
scooby_state_638ebd|31|0 3042,20,3,1,0,8,0,0,0,2,0,28,1,0,1,3106,
scooby_state_4983e1|2|0 106,0,2793,1,2,191,0,2,1,0,0,1,0,8,0,3105,
scooby_state_64cc6c|12|1 3097,2,0,0,0,0,0,0,1,0,0,0,1,0,1,3102,
scooby_state_64cc6c|42|1 3087,0,0,0,0,1,0,0,0,0,1,0,0,3,1,3093,
scooby_state_638eb0|7|1 3065,5,3,1,2,1,1,0,2,0,2,1,1,1,2,3087,
scooby_state_64cc6c|7|1 3072,0,1,2,0,1,0,0,1,0,1,0,2,0,1,3081,
scooby_state_64cc6c|37|1 3008,0,0,1,2,0,1,0,1,0,0,1,0,0,0,3014,
scooby_state_638ed1|38|1 2977,2,4,2,5,2,1,2,1,1,1,2,2,1,3,3006,
scooby_state_64cc6c|38|1 2995,1,0,0,1,0,0,0,1,0,0,0,1,0,0,2999,
scooby_state_64cc6c|50|1 2985,0,1,0,0,0,0,0,0,0,0,0,0,0,0,2986,
scooby_state_638ebd|20|-1 2903,16,11,1,1,5,0,1,2,2,2,28,3,3,3,2981,
scooby_state_5e33c1|15|0 2846,115,0,1,1,0,1,1,0,0,0,0,1,0,1,2967,
scooby_state_64cc6c|56|1 2962,1,0,0,0,1,1,0,0,0,0,0,1,0,1,2967,
scooby_state_64cc6c|14|1 2954,0,0,0,1,1,0,1,0,0,0,0,1,0,0,2958,
scooby_state_638ec0|58|1 2887,3,0,2,2,0,3,2,2,3,0,3,2,2,6,2917,
scooby_state_64cc6c|57|1 2891,0,0,1,0,0,1,1,0,0,1,1,0,0,0,2896,
scooby_state_64cc6c|46|1 2848,1,1,0,0,0,0,0,1,1,0,0,0,2,0,2854,
scooby_state_64cc6c|44|1 2808,0,0,0,1,0,0,1,2,0,1,1,0,1,0,2815,
scooby_state_64cc6c|13|1 2787,0,0,0,0,0,1,0,0,0,0,1,0,0,0,2789,
scooby_state_64cc6c|48|1 2774,1,1,0,0,1,0,0,1,1,0,0,0,0,0,2779,
scooby_state_64cc6c|45|1 2689,1,0,1,0,0,0,0,1,0,0,1,0,0,0,2693,
scooby_state_64cc6c|49|1 2643,0,0,0,0,2,0,1,0,0,0,0,0,0,0,2646,
scooby_state_64cc6c|63|1 2627,1,0,1,1,0,0,0,0,0,0,0,1,0,0,2631,
scooby_state_638ed1|4|1 2589,5,7,2,8,0,1,5,0,1,0,0,3,0,0,2621,
scooby_state_64cc6c|11|1 2588,0,1,0,1,1,0,0,0,0,0,0,0,0,0,2591,
scooby_state_64d0c9|25|0 2586,0,0,0,1,0,0,0,0,1,0,1,0,0,0,2589,
scooby_state_638ed1|13|1 2559,1,2,2,3,6,2,1,2,1,1,3,2,1,2,2588,
scooby_state_64cc6c|4|1 2572,1,0,0,0,0,0,0,0,1,0,0,0,0,1,2575,
scooby_state_64cc6c|8|1 2526,0,0,1,0,0,0,0,0,0,0,0,0,2,1,2530,
scooby_state_638ebd|46|1 2362,28,3,0,3,5,1,2,3,0,0,30,8,1,7,2453,
scooby_state_638ebd|56|0 2392,0,0,2,1,2,1,0,2,2,0,0,0,0,2,2404,
scooby_state_49c402|16|1 293,9,20,0,14,1,0,0,0,2,2,2034,3,2,3,2383,
scooby_state_638ed1|0|0 2129,22,68,10,10,10,10,10,11,19,8,12,12,27,21,2379,
scooby_state_638ebd|15|0 2353,1,0,2,2,1,0,0,2,1,1,13,0,0,1,2377,
scooby_state_638ebd|62|1 2346,1,2,1,4,4,3,2,2,0,0,9,2,0,0,2376,
scooby_state_638ec0|20|1 2348,3,3,0,2,3,1,1,2,2,4,3,1,0,3,2376,
scooby_state_638ed1|51|1 2362,2,0,0,0,1,3,1,1,0,1,0,1,1,3,2376,
scooby_state_638ebd|34|1 2341,0,2,2,2,2,1,1,1,1,2,13,1,3,4,2376,
scooby_state_638ebd|12|1 2274,2,9,3,2,4,3,3,2,1,0,66,6,0,1,2376,
scooby_state_638ebd|37|1 2165,3,1,6,0,1,3,0,2,6,1,183,4,0,1,2376,
scooby_state_638ebd|2|0 2284,2,3,1,1,4,2,1,2,1,0,72,1,2,0,2376,
scooby_state_638ebd|47|1 2307,1,16,1,6,7,2,1,1,0,1,26,7,0,0,2376,
scooby_state_638ebd|59|1 2169,4,27,3,0,5,0,0,2,1,0,146,17,0,1,2375,
scooby_state_638ec0|62|-1 2328,2,4,3,2,5,2,4,1,5,3,0,2,0,13,2374,
scooby_state_638ed1|12|1 2336,0,1,1,1,19,1,1,2,1,1,5,1,1,3,2374,
scooby_state_638ed1|40|1 2339,1,2,1,2,16,1,1,1,2,1,1,2,1,2,2373,
scooby_state_638ed1|43|1 2328,0,1,0,2,28,1,2,1,1,2,5,0,1,1,2373,
scooby_state_638ed1|35|1 2326,1,5,2,0,24,2,1,1,1,1,5,0,2,2,2373,
scooby_state_638eb0|62|1 2352,2,0,2,2,2,0,3,2,1,1,1,1,1,2,2372,
scooby_state_638ebd|23|1 2316,15,3,3,0,3,0,1,1,0,2,11,4,5,7,2371,
scooby_state_638eb0|32|1 2356,1,3,0,0,1,2,0,2,0,1,2,0,1,2,2371,
scooby_state_638ed1|18|1 2340,1,2,2,5,15,0,1,0,2,0,0,1,1,1,2371,
scooby_state_638eb0|0|0 1877,3,55,16,12,17,13,13,14,13,13,241,16,42,26,2371,
scooby_state_638ed1|59|1 2347,2,3,1,6,2,0,2,0,2,1,2,2,0,0,2370,
scooby_state_638eb0|18|1 2354,1,0,0,0,2,2,1,1,2,0,2,1,1,2,2369,
scooby_state_638ed1|3|1 2298,2,7,1,4,31,0,0,2,13,0,6,1,1,3,2369,
scooby_state_638ec0|48|1 2334,4,1,2,3,0,4,3,2,3,2,3,3,2,3,2369,
scooby_state_64cc6c|9|1 2362,0,2,2,0,0,0,0,0,0,1,0,0,0,1,2368,
scooby_state_638eb0|63|1 2354,0,2,2,0,0,2,0,1,1,0,2,1,1,2,2368,
scooby_state_638ebd|23|-1 2334,5,4,0,1,3,2,3,0,2,1,6,1,2,4,2368,
scooby_state_638ed1|55|1 2314,2,4,0,4,28,0,2,1,0,2,5,2,0,1,2365,
scooby_state_64d0cc|48|0 2248,0,0,0,1,1,0,0,0,21,0,60,28,1,1,2361,
scooby_state_64cc6c|10|1 2352,0,0,0,0,0,0,1,1,1,0,0,0,0,0,2355,
scooby_state_638eb0|50|1 2335,2,5,0,1,0,1,1,1,2,1,0,2,0,3,2354,
scooby_state_638eb0|39|1 2337,1,0,0,0,0,2,1,2,4,0,0,3,1,0,2351,
scooby_state_638eb0|58|1 2322,1,0,1,2,1,3,0,1,1,0,1,3,0,2,2338,
scooby_state_638eb0|3|1 2316,0,0,3,1,1,2,1,1,1,0,1,1,2,2,2332,
scooby_state_638ed1|47|1 2280,1,2,2,3,7,0,0,1,13,1,4,1,3,4,2322,
scooby_state_638eb0|9|1 2307,0,0,1,0,1,2,0,2,2,0,1,3,0,2,2321,
scooby_state_638eb0|17|1 2302,2,6,0,0,1,1,0,1,1,2,0,1,0,0,2317,
scooby_state_638eb0|51|1 2298,3,3,1,1,1,1,1,2,1,2,1,0,0,1,2316,
scooby_state_638ed1|44|1 2288,2,2,0,2,0,1,3,0,0,1,0,2,2,1,2304,
scooby_state_638ec0|10|1 2262,4,2,3,0,3,2,0,0,0,2,3,3,4,2,2290,
scooby_state_638ec0|60|-1 2229,5,2,1,6,3,4,4,4,2,3,6,1,3,7,2280,
scooby_state_638ebd|45|-2 1762,295,15,55,4,2,3,3,6,4,2,103,9,7,9,2279,
scooby_state_64cc6c|6|1 2265,0,1,2,0,0,0,0,1,1,0,0,1,1,0,2272,
scooby_state_638ebd|1|-1 2099,4,6,5,3,6,1,0,1,2,3,128,0,1,3,2262,
scooby_state_638eb0|25|1 2240,1,0,1,0,1,2,0,0,0,0,2,0,0,2,2249,
scooby_state_64cc6c|5|1 2243,0,1,0,0,0,1,0,0,2,0,1,1,0,0,2249,
scooby_state_64cc6c|17|1 2239,0,0,1,0,0,0,1,1,0,0,0,0,0,0,2242,
scooby_state_638ed1|48|1 2224,1,1,1,1,0,2,1,1,2,0,0,2,0,2,2238,
scooby_state_64cc6c|18|1 2228,0,0,0,0,0,0,0,0,0,0,0,0,1,0,2229,
scooby_state_64d0c9|34|0 2070,1,0,0,0,10,0,0,0,0,1,1,1,0,1,2085,
scooby_state_638ebd|60|1 1959,5,15,1,1,5,1,0,1,0,1,21,8,3,2,2023,
scooby_state_64cc6c|1|0 2013,1,0,1,0,0,0,0,0,0,0,0,1,0,1,2017,
scooby_state_638ebd|45|1 1886,6,10,1,1,3,1,1,1,2,2,36,8,2,3,1963,
scooby_state_638eb0|28|1 1927,1,0,0,0,1,1,0,2,2,1,0,1,1,0,1937,
scooby_state_638eb0|57|1 1905,3,0,0,3,0,0,1,0,1,0,0,1,1,2,1917,
scooby_state_64cc6c|18|2 1894,0,0,0,0,0,1,0,0,0,0,0,0,0,0,1895,
scooby_state_406b41|45|1 234,418,14,122,46,21,71,21,23,21,22,726,5,45,68,1857,
scooby_state_5e5b40|45|0 1326,38,3,13,53,70,45,17,17,19,17,122,33,32,50,1855,
scooby_state_5a0b40|45|1 1850,0,1,0,0,1,0,0,0,0,0,0,1,0,0,1853,
scooby_state_5e1b43|45|-7 657,0,473,34,21,67,38,49,22,20,22,320,30,35,63,1851,
scooby_state_5e0b41|45|1 709,178,507,3,3,2,30,13,13,15,15,175,0,43,145,1851,
scooby_state_5e0b38|44|3 695,0,1,0,1,27,1,15,2,1,2,40,1061,3,2,1851,
scooby_state_489425|16|1 1846,0,0,0,2,0,0,0,0,1,0,0,1,0,0,1850,
scooby_state_489447|17|1 189,6,2,20,18,1,24,17,24,22,23,1305,127,28,44,1850,
scooby_state_638eb0|8|1 1840,0,0,0,0,0,2,0,3,2,1,0,2,0,0,1850,
scooby_state_5dcb43|45|1 1308,4,6,0,1,167,1,0,1,1,0,303,58,0,0,1850,
scooby_state_5dc6b0|26|-19 1276,11,3,15,195,307,4,10,5,6,2,0,0,9,6,1849,
scooby_state_638ebd|36|0 1824,1,5,0,1,0,0,1,0,0,0,15,0,1,1,1849,
scooby_state_5e1d00|52|8 348,2,4,4,6,0,0,1,0,3,0,5,0,1476,0,1849,
scooby_state_638450|17|-9 185,96,102,1254,15,13,3,11,6,9,9,5,90,37,14,1849,
scooby_state_5e4442|17|1 158,69,29,30,34,0,35,30,31,30,27,1250,5,34,86,1848,
scooby_state_7d3cb0|50|0 1069,0,55,54,53,30,10,91,24,52,24,28,235,63,60,1848,
scooby_state_5a0b83|46|1 1058,11,55,178,62,1,67,3,3,5,3,401,1,0,0,1848,
scooby_state_5dcb18|44|3 1844,1,0,0,0,0,1,0,0,1,0,1,0,0,0,1848,
scooby_state_4b5b00|44|3 1832,11,0,0,1,0,1,0,0,1,0,1,0,0,0,1847,
scooby_state_550a43|41|24 49,1796,0,0,0,1,1,0,0,0,0,0,0,0,0,1847,
scooby_state_4b5b40|45|1 1843,0,0,0,1,0,0,0,1,0,1,0,1,0,0,1847,
scooby_state_489140|5|-12 481,441,1,3,879,0,3,8,9,7,8,0,0,2,4,1846,
scooby_state_64cd00|52|2 1353,6,16,24,10,142,16,11,20,21,19,116,18,38,36,1846,
scooby_state_5e7d02|52|2 1349,341,4,58,0,93,0,1,0,0,0,0,0,0,0,1846,
scooby_state_4b5b93|46|1 803,20,32,3,1,3,3,5,3,4,4,894,0,0,71,1846,
scooby_state_6383c2|15|-26 2,2,4,3,1,1832,0,0,0,0,0,0,1,0,0,1845,
scooby_state_638ed1|27|1 1835,1,2,1,1,1,1,1,0,1,1,0,0,0,0,1845,
scooby_state_548680|26|0 834,80,41,43,47,322,51,45,52,57,49,62,50,53,59,1845,
scooby_state_495160|5|-21 728,0,337,17,58,26,60,115,57,59,67,198,8,20,95,1845,
scooby_state_550ca0|50|9 1728,0,0,100,0,12,1,1,0,1,0,0,0,1,0,1844,
scooby_state_638d00|52|37 1531,129,4,39,0,4,0,0,0,4,5,97,0,30,0,1843,
scooby_state_4983ee|15|0 1557,58,17,9,25,32,19,20,15,17,17,0,23,23,10,1842,
scooby_state_550b2a|44|-6 854,486,28,198,0,205,10,6,2,0,2,0,2,2,47,1842,
scooby_state_644b40|45|29 759,1,4,115,55,410,50,15,12,13,14,133,182,18,61,1842,
scooby_state_5e7ca7|50|9 19,95,87,964,41,85,48,26,27,27,26,37,30,48,276,1836,
scooby_state_486160|5|0 385,40,31,20,53,447,21,13,32,76,35,554,31,46,44,1828,
scooby_state_5dad20|52|0 1754,0,71,0,0,0,0,0,0,0,0,0,0,0,0,1825,
scooby_state_638ebd|52|-2 1437,294,5,10,2,4,5,4,4,4,8,14,6,4,9,1810,
scooby_state_49c3d0|15|0 1250,160,28,19,6,23,7,20,7,3,9,192,37,24,6,1791,
scooby_state_4983e1|20|-4 7,0,1427,12,1,316,1,0,0,1,0,0,0,0,0,1765,
scooby_state_638788|20|0 199,418,21,339,43,19,44,59,47,52,60,190,94,92,81,1758,
scooby_state_638ec0|37|1 1727,1,2,5,2,0,1,2,0,1,2,0,1,0,2,1746,
scooby_state_638ed1|61|1 1688,1,2,1,0,0,1,2,0,1,0,0,2,1,2,1701,
scooby_state_498441|34|0 2,9,4,1465,12,3,18,18,20,8,8,79,4,16,22,1688,
scooby_state_64d0c9|48|0 1596,2,4,3,3,21,4,3,3,2,4,1,4,5,5,1660,
scooby_state_638ec0|52|1 1631,3,3,1,2,3,1,0,1,1,3,2,1,0,0,1652,
scooby_state_5a0d06|52|6 782,0,306,6,118,40,2,2,2,2,3,19,1,357,0,1640,
scooby_state_638eb0|54|1 1623,0,0,0,0,1,2,0,2,1,0,1,1,0,1,1632,
scooby_state_4a53d0|15|0 600,18,8,44,259,31,37,23,39,44,39,108,291,22,58,1621,
scooby_state_638ec0|7|-1 1584,4,2,3,2,3,1,0,2,0,2,7,2,2,2,1616,
scooby_state_638ebd|48|0 1600,3,0,0,0,0,0,0,0,0,0,10,0,0,1,1614,
scooby_state_497d30|52|0 1255,214,6,17,3,7,9,10,10,11,10,0,18,16,24,1610,
scooby_state_644420|16|-29 531,0,5,0,51,114,17,20,10,66,18,1,702,51,13,1599,
scooby_state_638ec0|38|1 1576,4,1,2,0,0,3,0,0,0,0,2,2,5,2,1597,
scooby_state_638ed1|31|1 1544,2,4,0,4,27,0,1,1,1,1,5,1,0,1,1592,
scooby_state_638ebd|47|0 1572,1,8,1,0,1,0,0,0,0,0,7,1,0,0,1591,
scooby_state_638ebd|49|-1 1574,1,1,1,1,0,2,1,0,0,1,1,3,0,2,1588,
scooby_state_638ebd|21|1 1568,0,1,1,2,1,1,2,1,0,1,5,1,2,2,1588,
scooby_state_638ec0|27|1 1569,2,3,1,1,4,0,0,0,2,2,1,1,1,0,1587,
scooby_state_638ebd|28|2 1275,2,3,4,3,5,2,6,6,4,6,254,5,3,7,1585,
scooby_state_638ec0|42|-1 1553,0,2,0,4,1,3,3,2,4,2,2,2,1,5,1584,
scooby_state_638ebd|54|-1 1538,2,14,2,3,2,0,0,3,0,1,14,2,2,1,1584,
scooby_state_638ec0|54|1 1566,2,3,1,0,2,1,1,0,2,2,1,2,0,1,1584,
scooby_state_638ebd|60|-2 1255,182,4,38,5,3,2,4,4,3,4,65,5,4,6,1584,
scooby_state_638ec0|23|1 1564,2,3,1,2,2,1,2,1,2,0,2,1,0,1,1584,
scooby_state_638ebd|37|-1 1542,1,9,1,0,1,2,1,0,0,1,22,0,2,2,1584,
scooby_state_638ec0|63|33 1403,12,18,4,6,12,3,4,9,2,6,74,10,4,17,1584,
scooby_state_638ec0|35|1 1563,2,2,1,1,2,2,1,1,1,2,2,1,0,3,1584,
scooby_state_638ec0|15|1 1562,3,0,2,2,1,2,3,2,1,0,2,0,0,4,1584,
scooby_state_638ed1|5|1 1574,1,0,0,2,2,1,1,0,1,1,0,1,0,0,1584,
scooby_state_638ec0|2|1 1564,4,0,1,1,0,2,1,2,1,0,2,1,2,3,1584,
scooby_state_638ec0|2|-1 1552,4,2,1,1,1,2,4,1,2,2,4,1,2,5,1584,
scooby_state_638ec0|50|-1 1555,2,2,2,4,3,1,1,3,1,1,3,3,1,2,1584,
scooby_state_638eb0|61|1 1574,3,0,0,2,0,0,0,1,0,1,0,1,1,1,1584,
scooby_state_638ebd|3|1 1561,0,0,0,5,2,3,2,2,1,0,8,0,0,0,1584,
scooby_state_638ebd|32|-1 1564,2,0,0,0,0,6,2,0,0,0,2,2,1,5,1584,
scooby_state_638ed1|29|1 1558,1,0,2,2,2,1,0,0,13,1,1,1,1,1,1584,
scooby_state_638ebd|20|1 1485,2,8,3,0,1,1,0,1,3,2,70,6,1,1,1584,
scooby_state_638eb0|16|1 1573,3,0,0,1,1,0,2,0,1,0,1,1,0,1,1584,
scooby_state_638ebd|6|1 1501,1,0,3,2,1,2,1,2,2,1,65,3,0,0,1584,
scooby_state_638ec0|58|-1 1548,7,2,2,3,0,2,0,2,0,2,11,1,4,0,1584,
scooby_state_638ed1|7|1 1575,0,0,0,1,1,1,2,0,1,2,0,0,1,0,1584,
scooby_state_638ed1|46|1 1574,0,0,1,2,1,1,0,0,1,1,0,1,1,0,1583,
scooby_state_638ec0|51|1 1563,1,1,0,1,1,2,2,1,1,2,2,4,0,2,1583,
scooby_state_638eb0|34|1 1570,1,1,2,0,1,0,1,0,0,0,1,0,1,5,1583,
scooby_state_638ec0|29|-2 669,857,6,4,2,6,2,6,4,2,0,4,3,16,2,1583,
scooby_state_638ebd|26|-1 1503,2,5,3,3,1,0,0,0,1,2,59,2,0,1,1582,
scooby_state_638ed1|16|1 1551,2,0,1,2,19,1,0,0,1,0,2,2,0,1,1582,
scooby_state_638ebd|7|1 1472,2,13,2,0,2,2,0,1,2,0,80,6,0,0,1582,
scooby_state_638ec0|9|1 1562,2,3,3,2,1,0,1,1,1,2,1,1,0,2,1582,
scooby_state_638ed1|42|1 1573,0,0,0,1,2,1,1,1,0,2,0,0,0,1,1582,
scooby_state_638ed1|26|1 1557,1,3,1,2,6,0,1,1,1,1,5,2,0,1,1582,
scooby_state_54ed10|52|0 596,16,269,23,105,1,29,29,27,23,29,32,57,251,94,1581,
scooby_state_638ed1|33|1 1556,1,3,0,2,9,1,0,2,0,1,5,0,0,1,1581,
scooby_state_638ed1|15|1 1572,1,0,1,2,0,0,1,0,2,0,1,1,0,0,1581,
scooby_state_638ebd|13|13 1525,8,5,3,4,2,4,4,4,7,2,2,3,3,4,1580,
scooby_state_638eb0|45|1 1568,3,4,1,0,0,1,0,0,0,0,2,0,0,1,1580,
scooby_state_5dff02|34|14 488,79,24,60,53,20,34,59,44,15,18,196,56,21,413,1580,
scooby_state_638ec0|31|1 1560,4,2,1,1,2,1,2,2,0,1,3,0,0,1,1580,
scooby_state_638ebd|42|1 1535,19,0,0,3,4,1,3,1,0,1,8,2,0,2,1579,
scooby_state_638ebd|40|-1 1458,6,11,5,1,10,0,1,2,1,2,80,0,0,2,1579,
scooby_state_638ebd|27|-1 1533,19,2,1,1,3,2,3,1,0,0,9,0,1,4,1579,
scooby_state_638eb0|23|1 1567,1,3,2,0,1,0,0,0,0,2,1,0,0,2,1579,
scooby_state_638ec0|51|-2 673,848,6,4,2,6,2,6,4,2,0,5,2,16,2,1578,
scooby_state_638ebd|15|1 1485,15,2,2,1,3,1,1,1,2,1,54,6,0,3,1577,
scooby_state_638ebd|57|-1 1497,2,19,3,2,9,0,0,3,0,0,40,0,2,0,1577,
scooby_state_638eb0|26|1 1566,0,3,1,0,2,1,1,0,0,1,0,0,1,0,1576,
scooby_state_638ebd|58|1 1553,4,1,1,1,1,0,2,1,0,2,1,3,2,4,1576,
scooby_state_638ebd|41|13 1447,11,10,6,6,10,4,20,4,2,2,32,4,12,6,1576,
scooby_state_5e0a50|41|0 1,1571,0,1,0,0,0,1,0,0,0,0,0,0,0,1574,
scooby_state_7b3446|17|1 725,3,34,4,11,2,22,11,26,19,29,622,9,0,56,1573,
scooby_state_406a44|41|-4 48,1172,0,0,0,2,4,3,1,4,2,0,0,4,332,1572,
scooby_state_638ec0|11|1 1545,3,1,1,2,1,1,2,2,1,1,2,1,0,3,1566,
scooby_state_638ec0|10|-1 1527,4,3,3,2,3,1,0,2,1,2,8,3,2,2,1563,
scooby_state_5dca40|41|0 0,1556,0,1,0,0,0,0,0,0,0,0,1,0,0,1558,
scooby_state_638ebd|58|2 1293,1,11,2,2,5,3,8,2,3,3,202,4,5,4,1548,
scooby_state_5e2b60|45|40 840,50,21,77,84,1,33,20,20,21,22,38,214,41,63,1545,
scooby_state_4b59d1|34|0 1543,0,0,0,0,0,1,0,0,0,0,0,0,0,0,1544,
scooby_state_64cc82|50|0 1053,5,3,0,25,21,20,8,13,16,12,19,0,118,231,1544,
scooby_state_638ec0|17|1 1525,1,0,0,2,0,2,2,1,2,0,2,1,2,3,1543,
scooby_state_5e4420|16|0 1537,1,0,1,0,1,0,0,0,0,0,1,1,0,0,1542,
scooby_state_638ebd|59|18 910,22,27,21,13,17,13,18,18,20,17,337,21,49,39,1542,
scooby_state_5a0b30|44|0 1537,0,0,0,0,0,0,0,0,1,1,0,0,0,0,1539,
scooby_state_638ebd|48|14 1383,9,13,8,21,11,7,7,7,11,7,21,8,10,15,1538,
scooby_state_638ebd|18|-1 1493,0,13,1,2,2,2,1,1,0,0,17,0,1,2,1535,
scooby_state_638ed1|2|1 1516,1,5,0,3,3,0,1,1,0,1,1,1,0,1,1534,
scooby_state_638ec0|39|-2 570,914,5,2,3,5,2,1,5,3,3,3,3,6,4,1529,
scooby_state_498410|16|1 1500,3,0,0,1,1,1,1,0,1,1,0,18,0,0,1527,
scooby_state_638eb0|44|1 1517,0,0,2,1,0,1,0,1,1,0,1,1,0,1,1526,
scooby_state_64e140|5|0 1216,10,2,30,15,0,30,82,15,0,18,35,12,4,29,1498,
scooby_state_7b1472|17|2 813,175,72,41,9,32,17,40,37,36,40,86,10,39,51,1498,
scooby_state_498441|17|1 290,81,2,897,14,2,4,12,11,10,12,130,1,19,13,1498,
scooby_state_7b142a|16|-1 1359,81,4,0,11,0,10,5,3,6,6,3,3,1,5,1497,
scooby_state_638ebd|24|1 1431,1,7,1,2,2,1,1,2,0,0,26,5,0,0,1479,
scooby_state_638ed1|37|1 1447,3,3,0,1,8,1,1,2,0,1,4,0,1,2,1474,
scooby_state_638eb0|43|1 1464,2,3,0,1,1,0,1,0,0,1,0,1,0,0,1474,
scooby_state_64cc6c|34|9 1471,0,0,0,1,0,0,1,0,0,0,0,0,0,1,1474,
scooby_state_644b40|45|30 1207,3,214,1,4,0,5,0,3,4,1,0,17,4,5,1468,
scooby_state_638ec0|60|1 1447,4,2,2,1,2,1,0,2,0,0,3,1,0,1,1466,
scooby_state_7d2230|8|0 796,29,20,44,63,27,67,44,71,59,56,35,18,55,74,1458,
scooby_state_4b1220|8|0 542,0,0,8,43,0,28,172,30,30,27,417,10,115,36,1458,
scooby_state_638ec0|40|1 1436,3,1,1,1,1,2,2,2,1,1,2,0,0,3,1456,
scooby_state_64d0c9|1|0 1414,2,2,3,2,5,3,2,3,2,2,1,3,2,4,1450,
scooby_state_638ec0|1|-1 1418,0,2,1,3,2,2,2,3,1,1,2,2,2,2,1443,
scooby_state_5e1b80|46|1 20,0,0,9,0,0,0,0,0,0,0,1411,0,0,0,1440,
scooby_state_638690|26|-26 1241,27,0,12,7,7,15,7,21,11,19,4,27,21,17,1436,
scooby_state_6493c0|15|-26 782,5,17,197,21,19,20,23,20,21,19,217,38,22,13,1434,
scooby_state_638ec0|39|1 1403,3,2,2,1,1,1,2,2,1,2,2,0,0,3,1425,
scooby_state_64cc60|47|0 1409,0,0,0,0,0,1,0,0,0,0,0,1,0,0,1411,
scooby_state_7b13c2|15|0 1409,0,0,0,0,1,0,0,0,0,0,0,0,0,0,1410,
scooby_state_638ec0|34|-2 399,971,2,2,2,1,4,1,2,1,1,3,4,7,6,1406,
scooby_state_64cc6c|40|15 1393,0,0,0,0,1,0,0,0,0,0,0,0,0,0,1394,
scooby_state_638ec0|59|-1 1369,1,2,3,1,4,1,0,1,0,2,1,2,1,2,1390,
scooby_state_638ebd|58|-1 1379,0,1,1,1,0,1,2,0,0,1,1,2,1,0,1390,
scooby_state_638ebd|13|1 1343,6,3,1,0,1,0,1,0,0,1,7,3,2,2,1370,
scooby_state_4b5a40|41|0 4,0,1354,0,0,1,1,0,0,0,0,1,1,1,2,1365,
scooby_state_64d0cc|34|0 1308,2,2,3,2,4,2,2,3,5,3,18,3,2,4,1363,
scooby_state_498505|2|1 833,21,0,51,3,1,442,1,0,1,1,4,1,1,1,1361,
scooby_state_638ebd|52|1 1320,10,3,1,0,3,0,0,0,1,1,9,3,2,2,1355,
scooby_state_638ec0|53|-1 1329,1,1,0,14,0,1,1,2,1,0,2,2,1,0,1355,
scooby_state_638ec0|3|-2 456,862,1,1,2,1,3,0,2,1,1,2,2,4,5,1343,
scooby_state_638ed1|32|1 1308,2,6,2,7,3,0,3,1,0,1,2,2,0,1,1338,
scooby_state_400530|1|0 1265,39,0,0,4,0,0,0,0,0,0,0,1,20,0,1329,
scooby_state_638ec0|31|-1 1289,1,2,1,11,2,1,1,1,1,1,0,0,1,2,1314,
scooby_state_638ebd|24|-1 1289,1,0,0,1,0,0,2,0,0,0,0,0,0,0,1293,
scooby_state_5e33c1|40|8 1287,1,0,0,0,0,0,1,0,0,0,0,0,0,0,1289,
scooby_state_649a45|41|26 284,427,81,360,6,92,1,10,8,2,1,0,6,6,4,1288,
scooby_state_4984ea|25|5 1,76,2,5,0,0,0,1188,0,0,1,0,0,0,0,1273,
scooby_state_497d51|25|1 1265,0,0,0,0,0,0,0,0,0,1,0,0,0,0,1266,
scooby_state_550441|17|-28 498,3,0,5,0,111,0,0,0,1,0,640,1,0,0,1259,
scooby_state_495684|26|0 100,17,3,25,12,29,194,27,28,26,30,344,103,28,273,1239,
scooby_state_64df84|25|0 852,1,5,27,13,5,6,12,6,61,7,196,4,9,28,1232,
scooby_state_49c3d0|15|-1 1191,0,0,0,0,0,1,2,0,1,1,21,2,1,2,1222,
scooby_state_4983e1|54|0 46,0,1075,0,0,92,0,1,2,0,0,0,0,3,0,1219,
scooby_state_7b3142|5|0 2,0,1,0,1,1161,0,1,0,0,0,42,0,0,0,1208,
scooby_state_7d2253|35|0 843,319,0,0,0,0,0,0,1,0,0,37,0,0,0,1200,
scooby_state_677200|8|0 154,0,101,33,35,609,38,36,31,21,34,52,15,2,37,1198,
scooby_state_678230|8|0 8,0,1,1,99,0,90,15,21,0,16,736,145,6,60,1198,
scooby_state_5e3385|32|1 1185,0,0,0,0,0,0,1,0,0,0,0,1,0,1,1188,
scooby_state_489360|24|0 1184,0,2,0,0,0,0,0,0,0,0,0,0,0,0,1186,
scooby_state_550400|16|-28 1155,28,0,1,0,0,0,0,0,0,0,1,0,0,0,1185,
scooby_state_5e444b|1|-30 311,15,3,25,44,5,15,1,28,537,26,14,3,17,131,1175,
scooby_state_6ee3e0|15|0 1171,1,0,0,0,0,0,0,1,0,0,0,0,1,0,1174,
scooby_state_5e5b7f|14|0 456,20,63,7,21,280,35,28,35,37,34,2,35,22,64,1139,
scooby_state_638ebd|59|2 897,4,0,4,8,4,3,12,5,4,4,176,6,1,6,1134,
scooby_state_638ebd|30|13 1061,8,4,4,8,6,2,7,3,2,4,11,3,3,6,1132,
scooby_state_5e7a67|31|17 313,0,4,37,346,2,30,46,39,36,39,45,63,52,78,1130,
scooby_state_64cc6c|40|6 1116,0,0,0,0,0,1,0,0,0,0,1,0,0,0,1118,
scooby_state_48932d|16|2 115,1,0,0,106,128,0,147,10,0,13,1,0,13,576,1110,
scooby_state_64a766|20|1 1108,0,0,0,0,1,1,0,0,0,0,0,0,0,0,1110,
scooby_state_638ed1|56|1 1093,1,1,1,4,3,0,0,0,1,1,0,2,0,0,1107,
scooby_state_5e2140|5|-45 1,50,40,62,37,341,45,37,47,52,41,174,45,5,121,1098,
scooby_state_4983eb|24|0 819,216,0,1,0,0,1,0,2,1,1,0,0,44,3,1088,
scooby_state_406b1f|44|0 1083,1,0,0,1,0,1,0,0,1,0,0,0,0,0,1087,
scooby_state_48910b|39|-1 31,0,0,0,2,0,1,0,0,1,1,0,1048,0,0,1084,
scooby_state_638ec0|57|-1 1044,3,3,3,0,2,2,2,1,2,1,2,2,2,4,1073,
scooby_state_638ebd|56|1 1048,4,2,0,1,2,1,2,0,0,1,3,3,0,3,1070,
scooby_state_5dfb83|14|-2 8,738,0,94,0,53,16,10,16,24,16,7,45,15,27,1069,
scooby_state_5e2b8b|46|-1 39,0,1,0,1,7,0,0,0,0,0,0,0,1016,1,1065,
scooby_state_5e62d8|47|1 15,8,33,9,18,24,6,5,3,5,4,2,31,887,15,1065,
scooby_state_638ed1|24|1 1055,0,1,1,3,0,0,0,0,0,0,0,0,1,1,1062,
scooby_state_5e33ec|31|1 1003,10,1,44,0,0,0,0,0,0,0,0,0,0,0,1058,
scooby_state_4b5ab1|35|1 221,209,12,12,12,17,15,12,15,8,9,462,14,13,22,1053,
scooby_state_498ff0|24|-1 1051,0,0,0,0,0,0,0,0,0,0,0,1,0,0,1052,
scooby_state_638eb0|4|1 1036,1,3,0,0,0,2,0,1,1,1,0,1,0,0,1046,
scooby_state_5e394b|47|0 10,110,4,0,5,0,1,3,2,3,3,802,93,0,8,1044,
scooby_state_638ec0|32|1 1007,5,1,2,0,0,1,1,1,0,1,2,1,2,2,1026,
scooby_state_64a75f|2|0 544,322,59,43,1,0,17,37,0,0,0,0,0,0,0,1023,
scooby_state_4983eb|14|0 862,124,1,1,0,0,2,0,3,1,0,0,1,24,0,1019,
scooby_state_489433|14|-1 133,4,144,32,1,21,30,109,12,27,27,134,39,73,231,1017,
scooby_state_5a141a|31|-3 773,3,23,0,12,2,12,16,17,15,15,17,61,16,25,1007,
scooby_state_5a136b|34|0 22,3,0,1,0,0,0,0,1,0,0,0,970,0,0,997,
scooby_state_6386ab|25|0 124,0,575,0,288,0,0,0,1,2,0,0,0,0,0,990,
scooby_state_64d0cc|42|0 943,0,0,0,0,0,0,0,0,6,1,37,2,0,0,989,
scooby_state_5e7cd4|33|0 466,67,199,0,2,115,14,8,14,10,10,0,2,16,53,976,
scooby_state_5e2b8b|38|-2 79,2,0,0,1,44,1,0,0,0,0,0,0,844,0,971,
scooby_state_638a41|41|24 33,0,0,1,0,933,0,0,0,0,0,0,0,0,0,967,
scooby_state_4a5340|13|-2 738,63,85,0,3,0,21,13,11,6,15,8,0,0,3,966,
scooby_state_4893c0|15|2 650,88,21,22,24,33,12,3,16,14,17,29,4,15,15,963,
scooby_state_498505|26|1 684,14,0,32,2,2,217,1,0,1,2,4,1,1,0,961,
scooby_state_638ebd|26|1 938,4,1,0,1,2,1,2,0,0,1,0,4,0,2,956,
scooby_state_638ec0|19|1 944,3,1,0,1,2,0,0,1,1,0,2,0,0,0,955,
scooby_state_5e1b30|44|-2 949,1,0,0,0,0,0,0,0,0,0,0,0,0,0,950,
scooby_state_498683|14|3 16,113,19,160,140,34,38,20,22,26,20,0,19,287,33,947,
scooby_state_489377|15|-5 34,1,16,0,1,0,1,1,0,1,1,877,12,0,0,945,
scooby_state_638ec0|39|2 134,15,1,0,1,4,1,2,1,0,0,772,10,0,2,943,
scooby_state_497d48|36|-3 26,781,4,10,1,0,7,7,10,6,7,38,14,9,22,942,
scooby_state_5e2c82|50|5 90,733,51,3,4,3,0,3,0,3,0,0,5,42,4,941,
scooby_state_64cc6c|48|8 940,0,0,0,0,0,0,0,0,0,0,0,0,0,0,940,
scooby_state_64e35e|13|8 174,315,13,30,11,43,21,11,16,18,12,166,6,91,11,938,
scooby_state_5e7a41|41|-11 1,1,3,0,4,922,1,1,0,0,0,0,0,0,0,933,
scooby_state_5e33ec|29|1 885,8,0,32,0,0,0,0,0,0,0,0,0,0,1,926,
scooby_state_5e34c5|33|-14 0,0,164,2,0,1,48,2,0,0,1,706,0,1,1,926,
scooby_state_550b41|45|29 0,5,0,914,0,0,0,1,0,0,0,0,0,0,1,921,
scooby_state_5e7a41|41|0 29,0,0,1,0,883,0,0,0,0,0,0,0,0,1,914,
scooby_state_5e3389|30|1 908,0,0,0,0,0,0,0,0,0,0,1,0,1,0,910,
scooby_state_64cc6c|14|3 908,0,0,0,0,0,0,0,0,0,0,0,0,0,1,909,
scooby_state_5e62d2|16|0 907,0,0,0,0,0,0,0,0,0,0,0,0,0,1,908,
scooby_state_54a40d|16|0 477,5,173,11,7,46,9,6,9,8,10,51,75,6,15,908,
scooby_state_5a1401|16|1 533,0,21,0,0,0,0,0,1,0,0,353,0,0,0,908,
scooby_state_498ff0|30|-13 26,870,0,0,0,0,1,2,2,1,2,0,0,0,4,908,
scooby_state_644140|43|1 750,15,0,0,79,17,2,1,1,1,1,33,0,3,2,905,
scooby_state_5e2c82|50|0 159,413,2,18,14,20,14,9,13,9,11,13,3,182,23,903,
scooby_state_638ec0|14|1 887,3,0,3,1,0,1,1,1,0,0,1,0,0,1,899,
scooby_state_638ec0|36|-1 882,0,1,0,0,1,1,2,0,3,2,0,0,1,5,898,
scooby_state_638ec0|43|1 881,4,1,1,0,0,1,1,2,0,0,2,1,0,2,896,
scooby_state_64cc6c|11|4 892,1,0,0,0,0,0,1,0,0,0,0,0,0,0,894,
scooby_state_54ed29|43|1 865,0,0,1,0,27,0,0,0,0,0,0,0,0,0,893,
scooby_state_64a766|21|1 886,0,0,0,1,0,0,0,0,0,0,0,0,0,0,887,
scooby_state_485f70|3|0 559,8,68,101,0,3,15,8,10,7,10,72,9,0,16,886,
scooby_state_64d0c9|56|0 876,1,0,0,0,4,0,0,1,1,0,0,0,0,0,883,
scooby_state_5dfb76|20|1 625,24,9,1,106,7,7,9,5,6,4,36,15,11,18,883,
scooby_state_5e1b30|44|0 421,52,1,0,31,8,72,10,19,18,18,2,59,28,141,880,
scooby_state_638a41|41|0 1,0,1,0,1,871,0,1,1,0,0,0,0,0,0,876,
scooby_state_64a774|11|-19 73,0,4,11,4,2,6,635,2,2,47,63,19,2,1,871,
scooby_state_64d0cc|56|0 799,1,0,0,0,0,0,0,0,4,0,61,3,0,0,868,
scooby_state_64cc6c|48|23 865,0,0,0,0,0,0,0,0,0,0,0,1,0,0,866,
scooby_state_638ec0|27|-1 851,0,1,0,0,1,1,2,0,2,1,1,0,0,5,865,
scooby_state_638ec0|7|1 853,1,0,0,1,0,1,2,1,1,0,1,0,0,2,863,
scooby_state_638ebd|58|-2 622,181,2,23,2,4,3,3,1,0,1,12,2,2,3,861,
scooby_state_638ec0|53|2 72,15,0,0,1,4,1,1,1,0,0,755,9,0,1,860,
scooby_state_638eb0|52|-1 322,51,154,102,19,69,14,10,14,14,15,11,8,22,35,860,
scooby_state_495662|7|5 152,0,12,0,0,0,0,1,1,1,1,0,1,687,2,858,
scooby_state_638ec0|47|1 847,3,1,1,0,0,0,1,1,0,1,2,0,0,1,858,
scooby_state_638ed1|14|1 843,1,3,0,3,1,0,1,0,1,0,0,0,0,0,853,
scooby_state_49c43e|27|3 850,0,0,0,1,0,0,2,0,0,0,0,0,0,0,853,
scooby_state_64a774|1|-6 377,70,87,14,20,8,13,124,12,18,10,4,2,8,85,852,
scooby_state_4983eb|11|-15 99,446,136,20,0,22,0,0,0,0,0,0,0,123,0,846,
scooby_state_4983e1|26|1 3,2,837,0,0,0,0,1,0,0,1,0,0,0,0,844,
scooby_state_49c3fb|31|5 842,0,0,0,0,0,0,1,0,0,0,0,0,0,0,843,
scooby_state_64cc6c|42|2 842,0,0,1,0,0,0,0,0,0,0,0,0,0,0,843,
scooby_state_5e3389|28|1 835,0,0,0,1,0,1,0,0,2,0,0,0,2,0,841,
scooby_state_638ec0|41|1 827,3,0,1,0,0,1,0,0,0,0,1,1,2,1,837,
scooby_state_7b343f|16|11 830,0,0,0,0,0,0,0,0,0,1,0,3,0,0,834,
scooby_state_638ec0|33|1 822,0,1,4,3,0,0,0,0,0,1,0,1,0,1,833,
scooby_state_638eb0|59|1 826,1,0,0,0,0,1,1,1,1,0,0,0,1,0,832,
scooby_state_638ec0|3|1 817,3,0,1,0,0,1,0,1,0,0,1,1,2,1,828,
scooby_state_678c26|18|2 825,0,0,0,0,0,0,0,0,0,0,0,0,0,1,826,
scooby_state_5e2d47|53|-9 574,2,11,10,61,2,1,2,3,2,0,109,38,5,4,824,
scooby_state_64cc6c|24|4 815,0,1,0,0,0,0,0,0,0,1,1,0,0,0,818,
scooby_state_64cc6c|7|4 811,0,0,0,0,0,0,0,0,1,0,0,0,0,1,813,
scooby_state_498ff0|36|4 8,803,0,0,0,0,0,0,0,0,0,0,0,0,0,811,
scooby_state_5e62f8|24|1 7,0,803,0,0,0,0,0,0,1,0,0,0,0,0,811,
scooby_state_4890ec|39|5 64,146,27,43,1,243,10,0,6,6,5,0,231,17,10,809,
scooby_state_5dfb76|43|0 368,26,25,123,0,156,15,6,7,7,5,0,22,18,28,806,
scooby_state_638ebd|4|2 648,0,7,2,1,2,2,3,2,1,2,124,3,4,3,804,
scooby_state_5dfb76|47|1 587,23,9,1,75,7,7,7,5,5,5,32,13,10,15,801,
scooby_state_638ebd|24|10 730,15,8,11,3,2,0,1,1,1,1,13,6,1,7,800,
scooby_state_638ebd|28|-1 725,3,4,2,1,1,0,0,0,1,1,60,0,0,1,799,
scooby_state_638ebd|47|-1 781,0,3,0,2,0,0,0,0,0,1,8,2,1,1,799,
scooby_state_638ec0|52|-1 783,0,1,0,2,0,1,2,2,1,0,2,2,1,0,797,
scooby_state_638ebd|54|1 782,1,1,0,2,1,1,2,1,0,0,4,1,0,0,796,
scooby_state_638ebd|31|-2 671,94,4,2,1,0,2,1,1,4,1,2,7,3,3,796,
scooby_state_638ec0|49|2 73,6,0,0,0,3,1,1,0,0,1,702,8,1,0,796,
scooby_state_638ebd|43|1 718,2,2,2,0,1,1,0,1,1,1,60,5,0,1,795,
scooby_state_638ec0|5|1 785,1,0,1,0,0,2,1,0,2,1,0,1,0,0,794,
scooby_state_638ec0|54|4 741,0,3,1,1,0,1,3,7,4,8,8,6,7,4,794,
scooby_state_638ebd|28|1 780,0,0,0,2,1,1,2,2,0,1,4,0,0,0,793,
scooby_state_638ec0|18|1 786,1,0,1,0,2,1,0,0,1,0,0,1,0,0,793,
scooby_state_638ec0|51|2 70,2,0,0,0,2,0,0,2,0,1,715,1,0,0,793,
scooby_state_638ec0|60|-2 254,514,0,3,2,1,3,1,2,0,1,1,2,4,5,793,
scooby_state_638ec0|48|-2 245,528,0,2,1,1,1,2,1,2,1,3,1,4,1,793,
scooby_state_638ebd|40|1 780,0,0,1,2,1,2,1,1,0,0,4,0,1,0,793,
scooby_state_6386ae|32|0 645,18,0,57,22,0,0,0,0,0,0,0,0,51,0,793,
scooby_state_638ebd|30|1 719,2,2,2,0,1,0,0,1,1,0,60,4,1,0,793,
scooby_state_638ebd|34|-1 783,1,1,0,0,1,0,1,0,1,0,3,1,1,0,793,
scooby_state_638ebd|39|-3 100,0,678,14,0,0,0,0,0,0,0,0,0,0,1,793,
scooby_state_638ebd|29|1 781,0,0,0,3,1,1,2,1,0,0,4,0,0,0,793,
scooby_state_638ebd|24|2 644,1,3,1,1,4,1,3,2,2,2,125,1,2,1,793,
scooby_state_638ebd|42|2 637,0,9,2,2,1,2,3,1,1,2,124,3,3,3,793,
scooby_state_638ebd|2|2 641,0,4,2,2,2,2,3,2,1,2,123,3,3,3,793,
scooby_state_638ebd|3|-3 99,0,678,14,0,0,0,1,0,0,0,0,0,0,0,792,
scooby_state_638ed1|16|0 724,3,13,4,1,3,3,3,2,6,6,7,3,4,10,792,
scooby_state_638ebd|18|10 712,1,3,2,0,1,1,0,1,4,3,56,3,2,3,792,
scooby_state_638ebd|4|-1 781,0,1,0,0,1,0,1,0,2,1,3,1,1,0,792,
scooby_state_638ec0|16|-1 779,0,1,0,2,0,1,1,2,2,0,2,1,1,0,792,
scooby_state_638ebd|49|-2 664,105,1,3,1,2,2,1,2,0,2,1,3,2,3,792,
scooby_state_638ec0|22|-15 792,0,0,0,0,0,0,0,0,0,0,0,0,0,0,792,
scooby_state_638eb0|12|1 784,0,0,2,3,1,0,0,0,0,0,0,1,0,1,792,
scooby_state_638ebd|12|-1 784,0,2,1,1,0,0,0,0,0,1,0,2,1,0,792,
scooby_state_638ec0|19|-11 431,72,5,1,2,6,33,0,1,1,0,214,23,0,3,792,
scooby_state_638ed1|22|1 774,0,1,0,0,1,0,0,0,13,0,0,1,1,1,792,
scooby_state_638ed1|5|0 717,5,13,4,4,6,5,5,4,12,1,3,6,4,3,792,
scooby_state_638ec0|59|-2 246,526,2,2,1,1,2,1,0,2,2,1,2,0,4,792,
scooby_state_638ec0|6|-1 777,1,1,2,1,3,0,0,1,0,1,0,3,0,2,792,
scooby_state_638ed1|7|-1 337,3,51,1,32,101,17,17,14,13,23,45,113,5,20,792,
scooby_state_638eb0|4|2 133,13,16,1,7,3,3,4,5,6,5,568,13,0,15,792,
scooby_state_638ec0|15|-1 775,2,2,1,0,0,0,0,1,1,1,4,0,1,4,792,
scooby_state_638ec0|33|-1 776,2,2,4,0,1,2,0,0,0,1,1,2,1,0,792,
scooby_state_638ebd|9|-1 718,2,6,2,0,1,0,0,0,1,1,60,0,1,0,792,
scooby_state_638ebd|26|2 672,1,1,2,2,1,1,4,3,3,3,88,4,1,6,792,
scooby_state_638ed1|8|1 775,1,0,0,0,1,0,0,0,13,0,0,1,0,1,792,
scooby_state_638ec0|36|-2 253,514,0,3,2,1,3,1,2,0,1,1,2,4,5,792,
scooby_state_638ec0|43|2 70,15,0,0,1,4,1,1,1,1,0,689,8,0,1,792,
scooby_state_638ec0|8|-1 778,2,3,3,1,0,1,0,0,0,0,1,2,1,0,792,
scooby_state_638ebd|51|2 636,0,3,3,1,1,3,3,2,1,2,128,3,3,3,792,
scooby_state_638ec0|56|1 785,0,0,4,0,0,0,0,0,0,1,0,0,0,2,792,
scooby_state_638ec0|19|-2 247,523,2,0,2,2,2,0,2,2,3,1,2,1,3,792,
scooby_state_638ebd|18|-35 542,11,57,8,14,13,18,23,12,11,12,25,16,14,16,792,
scooby_state_638ec0|36|-3 547,107,20,8,1,33,6,7,8,5,6,21,5,5,13,792,
scooby_state_638ec0|55|-4 371,0,198,30,10,14,4,8,12,13,12,79,5,13,23,792,
scooby_state_638ec0|47|-1 778,0,1,0,0,1,1,2,1,2,1,0,0,0,5,792,
scooby_state_638ec0|48|2 70,14,0,0,1,4,1,3,1,0,0,689,8,0,1,792,
scooby_state_638ec0|46|2 71,5,0,0,1,1,1,1,0,0,1,702,8,1,0,792,
scooby_state_638eb0|59|2 213,8,45,1,2,3,3,11,6,4,4,466,18,2,6,792,
scooby_state_638ebd|38|-1 715,2,6,2,1,1,1,0,0,1,1,61,0,0,1,792,
scooby_state_638ec0|33|8 792,0,0,0,0,0,0,0,0,0,0,0,0,0,0,792,
scooby_state_638ec0|8|-53 352,157,11,18,12,0,14,25,26,19,21,84,23,1,29,792,
scooby_state_638ebd|9|1 711,2,6,2,1,1,0,0,1,1,0,62,5,0,0,792,
scooby_state_64cc3a|29|4 86,29,1,606,11,1,7,9,9,11,6,0,0,0,16,792,
scooby_state_638ec0|39|-14 309,8,87,58,32,48,16,14,12,7,12,17,131,16,25,792,
scooby_state_638ebd|50|-13 572,77,11,32,6,41,3,4,3,5,4,11,5,6,12,792,
scooby_state_638ebd|22|1 714,2,3,2,0,1,0,2,1,1,0,59,5,2,0,792,
scooby_state_638ec0|38|-2 246,525,2,2,1,1,2,1,0,2,2,2,2,0,4,792,
scooby_state_638ec0|25|-2 247,524,2,0,2,2,1,0,2,2,3,1,2,1,3,792,
scooby_state_638eb0|60|2 218,7,47,1,1,3,3,11,6,4,4,463,17,1,6,792,
scooby_state_638ec0|61|-1 779,1,1,0,0,1,1,2,0,2,1,0,0,0,4,792,
scooby_state_638ebd|62|2 641,1,2,3,1,1,3,2,1,1,3,125,4,2,2,792,
scooby_state_638ec0|15|-3 549,107,19,8,0,33,6,7,8,5,6,21,5,5,13,792,
scooby_state_638ebd|46|-1 724,2,1,2,1,2,0,0,0,1,1,58,0,0,0,792,
scooby_state_638ebd|38|1 785,0,1,1,0,0,0,0,0,0,1,0,0,2,2,792,
scooby_state_638eb0|24|1 786,1,0,1,0,1,0,1,0,0,0,0,0,1,1,792,
scooby_state_638ebd|35|-28 792,0,0,0,0,0,0,0,0,0,0,0,0,0,0,792,
scooby_state_638ebd|0|-44 774,0,1,0,2,1,2,0,0,1,1,0,7,2,1,792,
scooby_state_638ec0|50|1 785,1,1,0,1,2,0,0,1,0,0,1,0,0,0,792,
scooby_state_638ec0|30|21 630,7,5,1,12,13,14,14,14,10,14,8,12,13,25,792,
scooby_state_638ebd|8|2 633,1,0,3,2,1,1,3,3,3,2,130,4,1,5,792,
scooby_state_638ebd|9|2 673,1,13,1,1,2,3,5,1,1,2,79,4,3,3,792,
scooby_state_638ebd|4|-2 617,107,12,38,0,0,0,1,0,1,0,12,2,0,2,792,
scooby_state_638ed1|51|0 724,3,13,4,1,3,3,3,2,5,6,8,3,4,10,792,
scooby_state_638ed1|0|-10 83,0,1,3,0,0,2,2,1,558,2,134,2,2,2,792,
scooby_state_638ed1|60|1 788,1,0,0,0,1,0,0,0,0,0,0,1,0,1,792,
scooby_state_64cce6|28|-1 606,0,96,0,32,0,0,2,1,0,1,54,0,0,0,792,
scooby_state_638ec0|4|2 72,5,0,0,0,1,2,1,0,0,0,701,8,1,1,792,
scooby_state_638ebd|61|-1 784,0,1,1,0,0,0,0,0,2,2,1,0,1,0,792,
scooby_state_638eb0|40|1 786,0,0,1,0,1,0,1,0,0,0,1,0,1,1,792,
scooby_state_638ec0|53|-2 252,513,0,3,2,1,4,1,2,0,1,1,2,5,5,792,
scooby_state_638ebd|27|1 784,0,1,1,0,0,0,0,0,1,1,0,1,2,1,792,
scooby_state_638ebd|61|2 639,0,3,2,1,2,2,3,2,1,2,126,3,3,3,792,
scooby_state_638ec0|12|1 783,1,0,0,1,0,1,1,1,1,0,1,0,0,2,792,
scooby_state_638eb0|27|1 788,0,0,1,0,1,0,1,0,0,0,0,0,1,0,792,
scooby_state_638ec0|19|3 700,3,3,9,7,8,0,2,2,7,2,28,3,12,6,792,
scooby_state_638eb0|49|1 787,0,0,0,0,1,0,1,0,0,0,1,0,1,1,792,
scooby_state_638ebd|35|1 723,1,0,2,0,0,1,0,0,2,0,60,2,1,0,792,
scooby_state_638ebd|11|1 718,2,1,2,0,2,0,0,1,1,0,60,5,0,0,792,
scooby_state_638ec0|35|-1 778,1,1,2,1,3,0,0,1,0,1,0,2,0,2,792,
scooby_state_638ec0|21|1 782,1,2,0,0,2,0,0,0,0,2,1,1,0,1,792,
scooby_state_638ebd|10|1 782,0,1,2,0,0,0,0,0,1,2,0,0,2,2,792,
scooby_state_638ebd|8|-1 759,0,13,1,0,2,0,0,1,0,0,15,0,1,0,792,
scooby_state_638ec0|8|-2 251,514,0,3,3,1,3,1,3,0,1,1,2,4,5,792,
scooby_state_638ebd|29|-1 785,0,1,1,0,1,0,0,0,1,1,0,0,1,1,792,
scooby_state_638ebd|24|-4 506,24,14,91,9,0,12,12,12,11,13,25,10,45,8,792,
scooby_state_638ebd|57|1 783,1,2,0,0,2,1,1,0,0,0,0,2,0,0,792,
scooby_state_638ed1|19|1 784,1,1,0,0,1,0,1,0,0,1,0,2,0,1,792,
scooby_state_638ec0|48|33 724,4,2,4,1,5,4,5,2,5,7,13,1,5,10,792,
scooby_state_638eb0|31|1 788,0,0,1,0,0,1,0,0,0,0,1,0,0,1,792,
scooby_state_638ebd|51|27 599,21,0,0,1,0,65,3,4,0,7,83,2,1,6,792,
scooby_state_638ebd|62|-1 780,0,1,0,1,1,0,1,0,2,1,3,1,1,0,792,
scooby_state_638ebd|50|1 784,0,2,0,0,2,1,1,0,0,0,0,1,0,1,792,
scooby_state_638eb0|6|1 785,2,2,0,0,0,0,1,0,1,0,0,0,1,0,792,
scooby_state_638ebd|56|-1 781,0,1,0,0,1,0,1,0,2,1,3,1,1,0,792,
scooby_state_638ec0|44|-2 335,427,4,2,1,3,1,3,2,1,0,2,1,8,1,791,
scooby_state_638ec0|56|3 696,6,2,3,5,7,5,4,5,4,4,20,11,12,7,791,
scooby_state_638ebd|10|-5 580,61,0,28,10,0,4,6,5,7,5,57,7,9,11,790,
scooby_state_638ed1|30|1 754,1,1,0,2,24,0,0,1,0,0,5,0,1,1,790,
scooby_state_638ec0|4|-1 771,3,1,1,1,0,1,0,2,0,1,7,0,2,0,790,
scooby_state_638ec0|25|1 779,3,0,1,1,0,1,0,0,0,0,1,1,2,1,790,
scooby_state_638ebd|31|13 772,3,0,1,1,2,1,1,2,1,1,0,1,2,2,790,
scooby_state_638ebd|46|14 732,6,2,4,4,3,3,6,3,2,4,5,5,3,8,790,
scooby_state_638ec0|22|2 77,0,0,0,1,1,0,0,1,1,1,705,2,0,1,790,
scooby_state_638ec0|59|1 779,3,0,2,0,0,1,0,0,0,0,1,1,2,1,790,
scooby_state_638ec0|13|2 77,0,0,0,1,1,0,0,0,1,1,706,2,0,1,790,
scooby_state_638ec0|50|2 75,0,0,0,1,2,0,0,0,1,1,707,2,0,1,790,
scooby_state_638ebd|61|3 648,4,20,6,7,8,6,5,6,5,5,41,13,6,10,790,
scooby_state_638ec0|49|1 779,2,1,1,0,0,0,1,1,0,1,3,0,0,1,790,
scooby_state_638ebd|56|13 723,3,7,3,3,5,2,13,2,1,2,16,2,5,3,790,
scooby_state_638ebd|28|5 15,0,0,12,0,0,0,1,0,1,0,759,0,0,1,789,
scooby_state_638ebd|14|-3 97,1,674,15,1,0,1,0,0,0,0,0,0,0,0,789,
scooby_state_638ebd|51|-1 753,11,1,0,1,4,0,0,2,0,0,14,0,1,2,789,
scooby_state_638ebd|63|1 756,17,0,0,1,2,0,2,0,0,1,6,2,0,2,789,
scooby_state_638ec0|10|5 787,0,1,0,0,0,0,0,0,0,0,0,0,0,1,789,
scooby_state_638ec0|39|15 747,0,25,3,0,0,0,1,1,0,1,5,2,2,2,789,
scooby_state_638ebd|47|-3 97,1,672,16,1,0,1,0,0,0,1,0,0,0,0,789,
scooby_state_638ebd|9|9 512,15,5,15,10,15,14,13,14,11,12,89,26,15,23,789,
scooby_state_638ec0|42|2 77,0,1,0,1,1,0,0,0,2,1,703,2,0,1,789,
scooby_state_638ec0|35|2 71,0,0,0,1,3,0,1,0,1,0,708,3,0,1,789,
scooby_state_638ebd|5|-2 624,100,4,29,0,5,1,2,1,2,1,15,1,1,3,789,
scooby_state_638ebd|58|13 764,3,1,1,5,1,1,3,2,0,1,0,1,3,3,789,
scooby_state_638ebd|59|14 732,5,2,4,4,3,3,6,3,2,4,5,5,3,8,789,
scooby_state_638ebd|36|13 723,3,8,3,3,5,2,13,2,3,1,12,2,6,3,789,
scooby_state_638ebd|34|3 646,4,21,6,6,8,7,5,6,5,5,41,13,6,10,789,
scooby_state_638ec0|34|-7 785,1,1,1,0,0,0,0,1,0,0,0,0,0,0,789,
scooby_state_638ebd|46|13 758,5,2,0,6,1,1,4,1,1,3,0,2,2,3,789,
scooby_state_638eb0|35|1 781,3,3,0,0,0,0,0,0,0,2,0,0,0,0,789,
scooby_state_638ebd|9|-3 97,1,673,15,0,0,1,1,0,0,0,0,0,0,1,789,
scooby_state_638ebd|10|6 41,0,0,0,8,0,0,1,0,3,1,733,0,1,1,789,
scooby_state_638ebd|8|-2 623,101,4,29,0,5,1,2,1,1,2,15,1,1,3,789,
scooby_state_638ebd|61|14 729,4,2,4,6,4,3,6,3,2,4,5,5,4,8,789,
scooby_state_638ebd|42|3 647,4,21,6,6,8,6,5,6,5,5,41,13,6,10,789,
scooby_state_638ebd|47|10 692,32,3,18,3,4,1,0,2,1,1,19,9,1,3,789,
scooby_state_638ebd|40|7 786,0,1,0,0,0,0,0,0,0,0,1,1,0,0,789,
scooby_state_638ebd|33|-9 485,2,0,0,189,4,3,4,5,8,4,72,0,1,12,789,
scooby_state_638ebd|24|-35 596,8,15,13,14,14,12,11,14,13,11,20,10,12,26,789,
scooby_state_638ebd|19|13 768,3,1,1,1,2,1,1,2,1,1,0,2,3,2,789,
scooby_state_638ec0|32|11 512,85,0,9,6,1,3,2,4,5,2,128,20,3,8,788,
scooby_state_638ec0|12|3 691,5,2,3,5,10,5,4,5,4,4,20,11,13,6,788,
scooby_state_638ec0|56|51 485,29,13,33,11,1,15,13,16,11,17,11,80,22,31,788,
scooby_state_638ebd|51|1 707,1,7,1,0,1,0,0,1,0,0,64,6,0,0,788,
scooby_state_638ec0|60|48 647,0,0,4,0,24,0,0,1,0,0,112,0,0,0,788,
scooby_state_638ed1|58|1 752,0,1,0,2,26,0,0,1,0,0,5,0,0,1,788,
scooby_state_638ebd|51|13 767,5,0,1,2,1,1,2,2,0,1,1,2,1,2,788,
scooby_state_638ebd|15|13 720,12,3,3,3,5,3,8,2,1,1,16,2,6,3,788,
scooby_state_638ebd|11|-1 752,18,1,0,2,3,0,1,1,0,0,7,0,1,2,788,
scooby_state_638ec0|21|-15 788,0,0,0,0,0,0,0,0,0,0,0,0,0,0,788,
scooby_state_638ec0|11|-2 310,461,1,1,3,0,1,2,0,0,0,2,2,4,1,788,
scooby_state_638ebd|22|13 718,7,5,3,3,9,3,9,2,1,1,17,2,6,2,788,
scooby_state_638ec0|1|-51 447,6,124,20,9,16,12,13,13,53,14,27,12,1,21,788,
scooby_state_638ec0|10|-10 421,59,5,3,20,123,4,12,13,15,13,56,9,15,20,788,
scooby_state_638ebd|54|11 555,61,7,15,6,7,6,12,6,6,7,41,38,9,12,788,
scooby_state_638ec0|56|14 661,13,11,10,6,5,8,8,7,9,5,11,3,11,20,788,
scooby_state_638ed1|54|1 777,2,3,0,3,0,0,1,0,0,0,0,1,0,1,788,
scooby_state_638ec0|13|-1 763,4,1,0,4,2,1,1,0,0,1,7,1,2,1,788,
scooby_state_638ebd|60|13 715,7,5,3,3,9,2,10,2,1,3,17,2,6,3,788,
scooby_state_638ebd|55|5 15,0,0,11,0,0,0,2,1,1,0,757,0,0,0,787,
scooby_state_638ebd|20|13 769,3,0,1,1,2,1,1,2,1,1,0,1,2,2,787,
scooby_state_638ec0|0|-19 690,2,5,4,5,6,6,22,6,6,9,5,4,6,11,787,
scooby_state_638ebd|41|8 580,9,40,14,6,33,11,12,8,5,9,23,9,11,17,787,
scooby_state_638ebd|11|-11 625,25,12,5,8,0,17,2,3,2,7,46,16,8,11,787,
scooby_state_638ec0|52|2 70,0,0,0,1,3,1,0,0,1,0,708,2,0,1,787,
scooby_state_638ec0|21|-1 771,3,2,3,0,0,1,0,0,0,1,2,2,2,0,787,
scooby_state_638ebd|23|13 717,6,6,3,3,8,3,9,2,1,1,18,2,5,3,787,
scooby_state_638ebd|5|-1 748,5,3,1,1,6,0,0,2,0,1,17,0,0,2,786,
scooby_state_638ebd|38|13 754,6,2,0,6,1,1,5,1,2,3,0,1,2,2,786,
scooby_state_638ebd|53|14 683,10,7,4,21,7,4,1,4,9,3,17,3,6,7,786,
scooby_state_638ebd|2|-12 691,7,1,13,7,5,12,9,6,5,4,14,4,2,6,786,
scooby_state_638ebd|19|1 751,24,0,0,1,0,0,2,0,0,1,3,2,0,2,786,
scooby_state_638ebd|21|-2 626,99,9,21,0,3,1,1,0,2,2,13,3,1,5,786,
scooby_state_638ebd|5|-43 665,9,13,7,30,4,7,6,6,6,7,7,4,6,9,786,
scooby_state_638ebd|35|9 513,15,5,15,10,15,14,13,14,10,12,86,26,15,23,786,
scooby_state_638ebd|23|3 642,4,21,6,6,7,7,5,6,5,5,43,13,6,10,786,
scooby_state_638ec0|54|14 653,13,23,6,7,7,9,7,7,9,5,9,3,12,16,786,
scooby_state_638ebd|57|11 571,43,6,6,9,7,7,29,7,8,7,45,17,10,14,786,
scooby_state_638ec0|63|62 414,8,78,0,40,51,17,17,16,15,15,19,44,23,29,786,
scooby_state_638ebd|2|-56 633,1,7,7,40,35,7,8,6,9,7,4,0,6,15,785,
scooby_state_638ebd|7|-1 741,5,2,2,1,9,1,0,4,0,1,17,0,0,2,785,
scooby_state_638ebd|16|4 247,2,195,1,0,2,1,1,1,0,2,8,322,2,1,785,
scooby_state_638ebd|60|-1 752,18,1,0,1,3,0,1,1,0,0,5,0,1,2,785,
scooby_state_638ebd|20|-43 666,9,12,6,29,6,6,6,7,7,6,7,5,4,9,785,
scooby_state_638ebd|35|13 711,5,7,3,3,8,2,10,2,2,1,21,2,5,3,785,
scooby_state_638ebd|30|-1 743,3,4,3,0,7,0,0,2,0,0,23,0,0,0,785,
scooby_state_638ebd|47|-2 612,106,10,38,0,0,1,1,2,1,0,11,2,0,1,785,
scooby_state_638ebd|24|14 675,5,10,4,17,12,4,1,4,9,3,25,3,6,7,785,
scooby_state_5e34ce|62|29 764,0,0,18,2,1,0,0,0,0,0,0,0,0,0,785,
scooby_state_638ebd|14|-43 663,9,11,7,30,7,6,6,7,8,6,7,5,4,9,785,
scooby_state_638ebd|13|-43 666,10,14,6,30,4,6,5,5,5,6,8,5,6,9,785,
scooby_state_638ebd|4|-38 3,779,0,0,0,1,0,1,0,0,0,0,1,0,0,785,
scooby_state_638ebd|31|30 782,1,0,0,0,0,0,0,0,0,0,1,0,0,0,784,
scooby_state_644664|1|0 759,0,25,0,0,0,0,0,0,0,0,0,0,0,0,784,
scooby_state_638ebd|11|11 569,48,7,6,7,6,7,31,8,6,6,45,17,9,12,784,
scooby_state_638ebd|28|12 618,69,2,11,4,7,3,1,8,5,9,17,10,1,19,784,
scooby_state_638ebd|33|22 367,0,27,22,32,35,34,32,34,33,24,46,20,25,53,784,
scooby_state_638ebd|48|-1 772,3,2,0,1,1,0,1,0,0,0,1,0,1,2,784,
scooby_state_638ebd|33|-8 502,22,6,6,17,19,19,73,15,13,9,27,20,16,19,783,
scooby_state_638ebd|17|-11 622,14,13,8,7,4,21,3,3,3,5,51,10,8,11,783,
scooby_state_638ebd|62|14 672,6,10,4,17,12,4,1,4,9,3,25,3,6,7,783,
scooby_state_638ebd|5|-56 653,0,6,7,21,34,9,6,6,7,8,4,1,7,14,783,
scooby_state_638ebd|48|21 572,8,18,5,7,38,8,12,12,36,7,24,4,12,20,783,
scooby_state_638ec0|31|-19 693,3,10,5,5,6,5,13,5,6,5,5,4,6,11,782,
scooby_state_638ebd|38|15 403,34,5,8,151,1,13,8,10,7,8,108,4,5,17,782,
scooby_state_638ebd|8|-52 746,0,0,22,0,0,12,0,0,0,1,0,1,0,0,782,
scooby_state_638ed1|0|-56 0,1,0,1,0,773,1,1,1,1,1,0,0,1,1,782,
scooby_state_638ec0|5|-34 75,33,185,164,26,20,24,25,30,27,29,31,31,40,41,781,
scooby_state_638ec0|58|35 558,28,48,3,0,22,6,8,7,6,8,62,11,0,14,781,
scooby_state_638ebd|16|1 772,1,0,0,1,1,0,2,0,0,2,0,0,1,1,781,
scooby_state_54ed1f|42|8 780,0,0,0,1,0,0,0,0,0,0,0,0,0,0,781,
scooby_state_638ebd|59|-1 772,1,0,0,0,0,2,1,0,0,0,1,1,1,2,781,
scooby_state_638ebd|61|17 635,2,8,9,16,7,9,7,8,6,8,19,16,12,18,780,
scooby_state_638ebd|44|1 770,2,0,0,1,0,0,3,0,0,1,0,0,1,2,780,
scooby_state_638ec0|16|-46 506,1,15,0,33,77,59,6,8,6,8,29,7,11,14,780,
scooby_state_638ebd|62|56 613,6,14,4,10,15,11,13,12,12,13,1,19,21,14,778,
scooby_state_638ebd|62|44 474,25,7,31,21,116,36,5,9,8,8,0,19,4,15,778,
scooby_state_638ebd|49|15 402,32,5,9,148,1,13,8,10,7,8,110,3,5,17,778,
scooby_state_638ebd|49|-11 632,6,25,7,13,0,20,10,9,10,4,15,8,4,15,778,
scooby_state_638ebd|19|10 728,20,1,14,0,0,1,0,1,1,0,2,6,1,2,777,
scooby_state_638eb0|42|9 368,14,11,20,20,17,23,19,15,17,18,150,22,22,41,777,
scooby_state_638ebd|6|2 634,0,0,0,0,4,3,4,2,1,1,124,1,0,3,777,
scooby_state_638ebd|18|-43 661,8,13,6,29,4,6,6,5,5,6,8,5,6,9,777,
scooby_state_638ebd|47|44 477,26,7,30,20,116,36,5,8,8,8,0,15,4,15,775,
scooby_state_6443d4|42|-20 755,0,0,0,0,0,0,1,0,1,1,0,17,0,0,775,
scooby_state_638ec0|30|-1 753,4,0,0,4,0,1,1,0,0,1,6,1,2,1,774,
scooby_state_638ec0|56|-1 761,2,2,3,0,0,1,0,0,0,0,1,2,1,0,773,
scooby_state_638ebd|29|10 719,19,2,17,0,0,1,0,1,1,0,4,6,1,2,773,
scooby_state_64d0c9|40|0 737,0,0,0,0,36,0,0,0,0,0,0,0,0,0,773,
scooby_state_638ebd|45|13 735,8,2,0,7,0,1,5,1,4,4,0,1,2,2,772,
scooby_state_638ec0|34|-22 384,73,0,25,1,98,0,49,118,1,1,0,18,2,2,772,
scooby_state_638eb0|25|-34 107,1,210,0,0,0,0,0,0,1,0,453,0,0,0,772,
scooby_state_6443d7|15|-3 1,0,1,766,1,0,0,0,0,0,0,0,0,0,0,769,
scooby_state_638ec0|39|20 567,11,10,9,38,6,15,12,15,12,11,4,11,19,27,767,
scooby_state_638ec0|33|-21 29,1,0,2,40,0,8,406,1,50,0,220,0,4,6,767,
scooby_state_638ebd|17|13 746,3,1,1,1,1,1,3,1,0,1,0,1,2,4,766,
scooby_state_638ec0|33|2 65,0,0,0,1,2,3,0,0,1,1,691,2,0,0,766,
scooby_state_638ebd|49|-10 52,46,24,7,18,352,10,9,8,6,9,200,9,4,12,766,
scooby_state_638ec0|33|-16 530,0,15,57,18,1,21,11,21,19,16,15,1,13,28,766,
scooby_state_5dcb2d|19|4 721,7,10,0,0,2,1,4,3,8,4,1,0,4,0,765,
scooby_state_638ec0|20|-33 467,207,1,16,7,5,9,8,10,8,9,0,4,7,7,765,
scooby_state_550b39|24|0 196,28,15,35,24,28,20,25,25,24,24,103,143,28,46,764,
scooby_state_638ebd|46|-12 668,6,1,14,8,6,10,9,7,5,4,12,4,2,7,763,
scooby_state_638ebd|22|-10 42,44,16,7,18,355,10,8,9,8,9,199,8,10,20,763,
scooby_state_638ec0|32|-1 748,0,1,0,2,0,1,1,2,2,0,2,2,1,0,762,
scooby_state_5f7b28|28|0 1,0,1,27,5,6,1,15,10,8,7,520,120,32,8,761,
scooby_state_498441|40|0 1,0,0,759,0,0,0,0,0,0,0,0,0,0,0,760,
scooby_state_638ebd|60|12 712,6,0,7,3,1,0,2,1,1,4,0,5,0,18,760,
scooby_state_638ebd|40|21 538,24,18,2,7,52,36,5,4,8,8,25,8,10,14,759,
scooby_state_638ebd|43|-11 613,7,14,8,6,0,24,8,7,7,8,28,12,3,14,759,
scooby_state_638ebd|0|-57 2,0,13,2,1,733,1,0,1,0,1,0,0,1,0,755,
scooby_state_638ebd|32|1 722,19,0,0,2,0,0,2,0,0,1,4,2,0,3,755,
scooby_state_638ec0|14|3 662,5,2,3,5,7,5,4,5,4,4,18,11,10,7,752,
scooby_state_638eb0|59|0 535,2,37,6,4,4,7,4,4,1,5,115,6,12,10,752,
scooby_state_638ec0|44|-17 561,5,13,6,59,14,15,1,1,0,2,3,13,39,19,751,
scooby_state_638ec0|12|-11 419,81,0,0,5,3,24,0,2,1,0,192,21,1,1,750,
[...]
scooby_state_649a4e|59|0 1,0,0,0,0,0,0,0,0,0,0,0,0,0,0,1,
scooby_state_638777|41|-5 0,0,0,0,0,1,0,0,0,0,0,0,0,0,0,1,
scooby_state_63869e|16|4 0,0,0,0,0,0,0,0,0,0,0,0,1,0,0,1,
scooby_state_7b1c0d|13|-1 1,0,0,0,0,0,0,0,0,0,0,0,0,0,0,1,
scooby_state_7b5749|3|-13 0,0,0,0,0,1,0,0,0,0,0,0,0,0,0,1,
scooby_state_5a1302|12|-2 1,0,0,0,0,0,0,0,0,0,0,0,0,0,0,1,
scooby_state_406bb0|18|-44 1,0,0,0,0,0,0,0,0,0,0,0,0,0,0,1,
scooby_state_548fce|25|-3 0,0,0,1,0,0,0,0,0,0,0,0,0,0,0,1,
scooby_state_639151|52|11 1,0,0,0,0,0,0,0,0,0,0,0,0,0,0,1,
scooby_state_649a4e|61|1 0,0,0,0,0,0,0,1,0,0,0,0,0,0,0,1,
scooby_state_4878ae|22|-1 1,0,0,0,0,0,0,0,0,0,0,0,0,0,0,1,
scooby_state_406bb0|34|-19 1,0,0,0,0,0,0,0,0,0,0,0,0,0,0,1,
scooby_state_7b5749|25|-13 0,0,0,0,0,1,0,0,0,0,0,0,0,0,0,1,
scooby_state_64dfb4|16|-4 1,0,0,0,0,0,0,0,0,0,0,0,0,0,0,1,
scooby_state_7b5749|1|-7 0,0,0,0,0,0,0,0,0,1,0,0,0,0,0,1,
scooby_state_7b1c0d|28|19 0,0,0,1,0,0,0,0,0,0,0,0,0,0,0,1,
scooby_state_7b31c0|20|20 1,0,0,0,0,0,0,0,0,0,0,0,0,0,0,1,
scooby_state_5dc97f|40|5 1,0,0,0,0,0,0,0,0,0,0,0,0,0,0,1,
scooby_state_678c15|20|-1 1,0,0,0,0,0,0,0,0,0,0,0,0,0,0,1,
scooby_state_7b5749|9|-33 0,0,0,0,0,0,0,1,0,0,0,0,0,0,0,1,
scooby_state_5e4dec|32|3 1,0,0,0,0,0,0,0,0,0,0,0,0,0,0,1,
scooby_state_678c15|16|1 1,0,0,0,0,0,0,0,0,0,0,0,0,0,0,1,
scooby_state_64d13a|3|-13 0,0,0,1,0,0,0,0,0,0,0,0,0,0,0,1,
scooby_state_7b322f|24|4 1,0,0,0,0,0,0,0,0,0,0,0,0,0,0,1,
scooby_state_64d0cc|24|-9 0,0,0,0,0,0,0,1,0,0,0,0,0,0,0,1,
scooby_state_406cd0|40|-14 1,0,0,0,0,0,0,0,0,0,0,0,0,0,0,1,
scooby_state_7b36df|27|9 1,0,0,0,0,0,0,0,0,0,0,0,0,0,0,1,
scooby_state_638c26|8|6 0,0,0,1,0,0,0,0,0,0,0,0,0,0,0,1,
scooby_state_639036|61|3 0,0,0,0,0,0,0,0,0,0,0,1,0,0,0,1,
scooby_state_7b31c0|59|0 1,0,0,0,0,0,0,0,0,0,0,0,0,0,0,1,
scooby_state_64d141|20|10 1,0,0,0,0,0,0,0,0,0,0,0,0,0,0,1,
scooby_state_7b37d0|31|4 0,1,0,0,0,0,0,0,0,0,0,0,0,0,0,1,
scooby_state_638f87|32|0 1,0,0,0,0,0,0,0,0,0,0,0,0,0,0,1,
scooby_state_7b5749|17|-16 0,0,1,0,0,0,0,0,0,0,0,0,0,0,0,1,
scooby_state_7b1c0d|3|2 0,0,0,0,0,0,0,0,0,0,0,0,1,0,0,1,
scooby_state_5dc813|50|5 0,0,1,0,0,0,0,0,0,0,0,0,0,0,0,1,
scooby_state_638ec0|20|-40 0,0,0,0,0,0,0,0,1,0,0,0,0,0,0,1,
scooby_state_64dfb4|40|-10 1,0,0,0,0,0,0,0,0,0,0,0,0,0,0,1,
scooby_state_5dc813|10|5 0,0,1,0,0,0,0,0,0,0,0,0,0,0,0,1,
scooby_state_64e196|19|18 1,0,0,0,0,0,0,0,0,0,0,0,0,0,0,1,
scooby_state_406bb0|14|-37 1,0,0,0,0,0,0,0,0,0,0,0,0,0,0,1,
scooby_state_7b1c9b|43|9 1,0,0,0,0,0,0,0,0,0,0,0,0,0,0,1,
scooby_state_638760|6|-3 1,0,0,0,0,0,0,0,0,0,0,0,0,0,0,1,
scooby_state_64d141|3|-14 1,0,0,0,0,0,0,0,0,0,0,0,0,0,0,1,
scooby_state_7b3590|17|5 1,0,0,0,0,0,0,0,0,0,0,0,0,0,0,1,
scooby_state_7b5749|6|-16 1,0,0,0,0,0,0,0,0,0,0,0,0,0,0,1,
scooby_state_406bcd|18|3 1,0,0,0,0,0,0,0,0,0,0,0,0,0,0,1,
scooby_state_64e196|59|16 1,0,0,0,0,0,0,0,0,0,0,0,0,0,0,1,
scooby_state_638ec0|62|60 0,0,1,0,0,0,0,0,0,0,0,0,0,0,0,1,
scooby_state_5e44e1|19|0 1,0,0,0,0,0,0,0,0,0,0,0,0,0,0,1,
scooby_state_406bb0|40|16 1,0,0,0,0,0,0,0,0,0,0,0,0,0,0,1,
scooby_state_678c15|4|-8 1,0,0,0,0,0,0,0,0,0,0,0,0,0,0,1,
scooby_state_406bb0|28|8 1,0,0,0,0,0,0,0,0,0,0,0,0,0,0,1,
scooby_state_649e7e|39|16 0,0,1,0,0,0,0,0,0,0,0,0,0,0,0,1,
scooby_state_4893aa|23|-5 1,0,0,0,0,0,0,0,0,0,0,0,0,0,0,1,
scooby_state_678c35|43|-9 0,0,0,0,0,0,0,0,0,1,0,0,0,0,0,1,
scooby_state_5a15aa|9|-2 1,0,0,0,0,0,0,0,0,0,0,0,0,0,0,1,
scooby_state_7b3590|29|-1 1,0,0,0,0,0,0,0,0,0,0,0,0,0,0,1,
scooby_state_638c26|36|-3 0,1,0,0,0,0,0,0,0,0,0,0,0,0,0,1,
scooby_state_7b1c0d|50|12 1,0,0,0,0,0,0,0,0,0,0,0,0,0,0,1,
scooby_state_638760|19|-4 0,0,0,0,0,0,0,1,0,0,0,0,0,0,0,1,
scooby_state_5dc97f|2|-6 0,0,0,0,0,1,0,0,0,0,0,0,0,0,0,1,
scooby_state_4e1560|21|0 1,0,0,0,0,0,0,0,0,0,0,0,0,0,0,1,
scooby_state_5dc97f|62|3 0,1,0,0,0,0,0,0,0,0,0,0,0,0,0,1,
scooby_state_498502|20|1 0,1,0,0,0,0,0,0,0,0,0,0,0,0,0,1,
scooby_state_7b5131|8|-2 0,0,0,0,0,0,0,0,0,0,0,0,0,0,1,1,
scooby_state_7b36a1|62|17 0,0,0,0,0,0,0,0,0,0,0,0,1,0,0,1,
scooby_state_638f1d|37|12 1,0,0,0,0,0,0,0,0,0,0,0,0,0,0,1,
scooby_state_649a4e|33|-9 0,0,0,0,0,0,0,0,0,0,0,1,0,0,0,1,
scooby_state_7b423c|45|1 0,0,0,0,0,0,0,0,0,0,0,1,0,0,0,1,
scooby_state_5f7b28|28|-17 1,0,0,0,0,0,0,0,0,0,0,0,0,0,0,1,
scooby_state_64cea0|37|0 1,0,0,0,0,0,0,0,0,0,0,0,0,0,0,1,
scooby_state_4878fb|31|-1 0,0,0,0,0,0,0,0,0,0,0,1,0,0,0,1,
scooby_state_7b3033|7|-23 0,0,0,0,1,0,0,0,0,0,0,0,0,0,0,1,
scooby_state_5dc813|11|-2 0,0,0,0,0,0,0,0,0,0,0,1,0,0,0,1,
scooby_state_64cf0d|6|-1 1,0,0,0,0,0,0,0,0,0,0,0,0,0,0,1,
scooby_state_64cc6c|20|13 1,0,0,0,0,0,0,0,0,0,0,0,0,0,0,1,
scooby_state_638ec0|48|-1 1,0,0,0,0,0,0,0,0,0,0,0,0,0,0,1,
scooby_state_5dc98a|21|1 1,0,0,0,0,0,0,0,0,0,0,0,0,0,0,1,
scooby_state_5e36fc|34|2 1,0,0,0,0,0,0,0,0,0,0,0,0,0,0,1,
scooby_state_63869e|50|4 0,0,0,0,0,0,0,0,0,0,0,0,1,0,0,1,
scooby_state_638c26|58|10 1,0,0,0,0,0,0,0,0,0,0,0,0,0,0,1,
scooby_state_64d13a|38|8 0,0,0,0,1,0,0,0,0,0,0,0,0,0,0,1,
scooby_state_638a34|39|3 1,0,0,0,0,0,0,0,0,0,0,0,0,0,0,1,
scooby_state_7b1cef|1|-19 0,0,0,0,1,0,0,0,0,0,0,0,0,0,0,1,
scooby_state_64e196|4|-12 1,0,0,0,0,0,0,0,0,0,0,0,0,0,0,1,
scooby_state_406beb|34|7 1,0,0,0,0,0,0,0,0,0,0,0,0,0,0,1,
scooby_state_550a43|13|1 0,1,0,0,0,0,0,0,0,0,0,0,0,0,0,1,
scooby_state_638c0a|63|1 0,1,0,0,0,0,0,0,0,0,0,0,0,0,0,1,
scooby_state_7b3054|21|5 1,0,0,0,0,0,0,0,0,0,0,0,0,0,0,1,
scooby_state_64cc6c|54|-1 1,0,0,0,0,0,0,0,0,0,0,0,0,0,0,1,
scooby_state_638ebd|57|19 1,0,0,0,0,0,0,0,0,0,0,0,0,0,0,1,
scooby_state_535bc8|57|0 1,0,0,0,0,0,0,0,0,0,0,0,0,0,0,1,
scooby_state_64e196|2|-1 1,0,0,0,0,0,0,0,0,0,0,0,0,0,0,1,
scooby_state_638760|39|4 0,0,0,0,0,0,0,0,0,0,0,0,0,1,0,1,
scooby_state_7b1c9b|44|4 1,0,0,0,0,0,0,0,0,0,0,0,0,0,0,1,
scooby_state_7b1c9b|17|8 1,0,0,0,0,0,0,0,0,0,0,0,0,0,0,1,
scooby_state_64e196|45|-8 1,0,0,0,0,0,0,0,0,0,0,0,0,0,0,1,
scooby_state_64dfb4|26|-7 1,0,0,0,0,0,0,0,0,0,0,0,0,0,0,1,
scooby_state_64a744|37|2 1,0,0,0,0,0,0,0,0,0,0,0,0,0,0,1,
scooby_state_7b1c9b|41|12 0,0,0,0,0,0,0,0,1,0,0,0,0,0,0,1,
scooby_state_7b1c9b|20|12 0,0,0,0,0,0,0,0,0,1,0,0,0,0,0,1,
scooby_state_64ceb0|25|-21 0,0,1,0,0,0,0,0,0,0,0,0,0,0,0,1,
scooby_state_7b1485|12|1 0,0,0,0,0,0,0,0,0,0,0,1,0,0,0,1,
scooby_state_406bb9|50|2 0,1,0,0,0,0,0,0,0,0,0,0,0,0,0,1,
scooby_state_7b1c9b|40|1 1,0,0,0,0,0,0,0,0,0,0,0,0,0,0,1,
scooby_state_7b1c0d|53|3 0,0,0,0,0,0,0,0,0,1,0,0,0,0,0,1,
scooby_state_64e196|17|1 1,0,0,0,0,0,0,0,0,0,0,0,0,0,0,1,
scooby_state_64e196|48|-8 0,0,1,0,0,0,0,0,0,0,0,0,0,0,0,1,
scooby_state_678c15|27|6 1,0,0,0,0,0,0,0,0,0,0,0,0,0,0,1,
scooby_state_638c26|39|-2 1,0,0,0,0,0,0,0,0,0,0,0,0,0,0,1,
scooby_state_5dc97f|6|2 0,0,0,0,0,0,0,0,0,0,0,0,0,1,0,1,
scooby_state_649e7e|30|10 0,0,0,0,0,0,0,0,0,0,0,1,0,0,0,1,
scooby_state_64a7af|22|0 1,0,0,0,0,0,0,0,0,0,0,0,0,0,0,1,
scooby_state_7b3178|11|3 1,0,0,0,0,0,0,0,0,0,0,0,0,0,0,1,
scooby_state_7b5749|15|-6 0,0,0,0,0,0,0,0,0,0,0,0,0,1,0,1,
scooby_state_5dfe16|56|6 1,0,0,0,0,0,0,0,0,0,0,0,0,0,0,1,
scooby_state_7b1c0d|28|16 0,0,0,0,0,0,0,0,0,0,0,1,0,0,0,1,
scooby_state_4983eb|53|0 1,0,0,0,0,0,0,0,0,0,0,0,0,0,0,1,
scooby_state_64cec1|23|1 0,0,0,0,0,1,0,0,0,0,0,0,0,0,0,1,
scooby_state_550a30|53|0 1,0,0,0,0,0,0,0,0,0,0,0,0,0,0,1,
scooby_state_638ebd|13|-50 0,0,0,0,1,0,0,0,0,0,0,0,0,0,0,1,
scooby_state_64e196|58|11 0,1,0,0,0,0,0,0,0,0,0,0,0,0,0,1,
scooby_state_406cd0|51|0 1,0,0,0,0,0,0,0,0,0,0,0,0,0,0,1,
scooby_state_4b5b9a|16|0 1,0,0,0,0,0,0,0,0,0,0,0,0,0,0,1,
scooby_state_406c20|16|2 0,0,0,0,0,0,0,0,0,0,0,0,0,1,0,1,
scooby_state_638f87|54|1 1,0,0,0,0,0,0,0,0,0,0,0,0,0,0,1,
scooby_state_649e7e|5|3 0,0,0,0,0,0,0,0,0,0,0,1,0,0,0,1,
scooby_state_64d0cc|50|44 0,0,1,0,0,0,0,0,0,0,0,0,0,0,0,1,
scooby_state_5e5b60|44|4 0,0,0,0,1,0,0,0,0,0,0,0,0,0,0,1,
scooby_state_7b5749|3|-15 0,0,0,0,0,1,0,0,0,0,0,0,0,0,0,1,
scooby_state_60cb60|45|18 0,0,0,0,0,0,0,0,0,0,0,0,1,0,0,1,
scooby_state_406c20|40|2 0,0,0,0,0,0,0,0,0,0,0,0,0,1,0,1,
scooby_state_64e196|5|2 1,0,0,0,0,0,0,0,0,0,0,0,0,0,0,1,
scooby_state_7b1c0d|3|-46 0,0,1,0,0,0,0,0,0,0,0,0,0,0,0,1,
scooby_state_649e7e|40|8 0,0,0,0,0,0,0,0,0,0,0,1,0,0,0,1,
scooby_state_7b5749|7|-19 1,0,0,0,0,0,0,0,0,0,0,0,0,0,0,1,
scooby_state_638c26|31|-2 0,0,0,0,0,0,0,0,0,0,0,0,1,0,0,1,
scooby_state_638777|3|-1 0,0,0,1,0,0,0,0,0,0,0,0,0,0,0,1,
scooby_state_406bd7|1|-53 0,1,0,0,0,0,0,0,0,0,0,0,0,0,0,1,
scooby_state_7b304a|31|-3 1,0,0,0,0,0,0,0,0,0,0,0,0,0,0,1,
scooby_state_638a34|34|-2 1,0,0,0,0,0,0,0,0,0,0,0,0,0,0,1,
scooby_state_7b3178|18|-1 1,0,0,0,0,0,0,0,0,0,0,0,0,0,0,1,
scooby_state_638760|10|-4 0,0,0,0,0,0,0,1,0,0,0,0,0,0,0,1,
scooby_state_7b3178|12|-23 0,0,0,1,0,0,0,0,0,0,0,0,0,0,0,1,
scooby_state_639036|51|0 0,0,0,0,0,0,0,0,0,0,0,1,0,0,0,1,
scooby_state_7b1472|22|0 1,0,0,0,0,0,0,0,0,0,0,0,0,0,0,1,
scooby_state_678c15|13|-5 1,0,0,0,0,0,0,0,0,0,0,0,0,0,0,1,
scooby_state_638eb0|50|13 1,0,0,0,0,0,0,0,0,0,0,0,0,0,0,1,
scooby_state_535bc0|26|1 0,0,1,0,0,0,0,0,0,0,0,0,0,0,0,1,
scooby_state_649e7e|40|2 0,0,0,0,0,0,0,0,0,0,0,1,0,0,0,1,
scooby_state_7b1c9b|42|19 0,0,0,0,0,0,0,0,0,0,0,1,0,0,0,1,
scooby_state_64a771|11|3 1,0,0,0,0,0,0,0,0,0,0,0,0,0,0,1,
scooby_state_6390dc|61|3 0,1,0,0,0,0,0,0,0,0,0,0,0,0,0,1,
scooby_state_48ea0e|25|5 0,0,0,0,0,0,0,0,0,0,0,1,0,0,0,1,
scooby_state_678c35|42|2 0,0,0,0,0,0,0,1,0,0,0,0,0,0,0,1,
scooby_state_638777|29|-6 0,1,0,0,0,0,0,0,0,0,0,0,0,0,0,1,
scooby_state_406c20|20|-1 0,0,0,0,0,0,0,0,0,0,0,0,0,1,0,1,
scooby_state_639151|44|11 1,0,0,0,0,0,0,0,0,0,0,0,0,0,0,1,
scooby_state_638773|20|4 1,0,0,0,0,0,0,0,0,0,0,0,0,0,0,1,
scooby_state_64d13a|38|9 0,0,0,0,0,0,0,0,0,0,0,1,0,0,0,1,
scooby_state_4a7694|27|1 0,0,0,0,0,0,0,0,0,0,0,1,0,0,0,1,
scooby_state_64d13a|48|-4 0,0,0,0,0,0,0,0,0,0,0,0,1,0,0,1,
scooby_state_406be1|59|3 1,0,0,0,0,0,0,0,0,0,0,0,0,0,0,1,
scooby_state_64cec1|17|1 0,0,0,0,0,1,0,0,0,0,0,0,0,0,0,1,
scooby_state_64d13a|3|2 0,0,0,0,0,0,0,0,0,0,0,1,0,0,0,1,
scooby_state_7b1cd5|42|32 0,0,0,0,0,0,0,0,0,0,0,0,1,0,0,1,
scooby_state_638760|2|-2 1,0,0,0,0,0,0,0,0,0,0,0,0,0,0,1,
scooby_state_406beb|2|-1 1,0,0,0,0,0,0,0,0,0,0,0,0,0,0,1,
scooby_state_7b34c6|19|2 1,0,0,0,0,0,0,0,0,0,0,0,0,0,0,1,
scooby_state_4a8c80|50|1 1,0,0,0,0,0,0,0,0,0,0,0,0,0,0,1,
scooby_state_64a774|16|0 0,0,0,0,0,0,0,0,0,0,0,1,0,0,0,1,
scooby_state_64ceb0|58|-1 0,0,1,0,0,0,0,0,0,0,0,0,0,0,0,1,
scooby_state_7b3054|8|6 1,0,0,0,0,0,0,0,0,0,0,0,0,0,0,1,
scooby_state_638a34|56|-2 1,0,0,0,0,0,0,0,0,0,0,0,0,0,0,1,
scooby_state_638c26|18|6 0,1,0,0,0,0,0,0,0,0,0,0,0,0,0,1,
scooby_state_406bcd|7|3 1,0,0,0,0,0,0,0,0,0,0,0,0,0,0,1,
scooby_state_7b5749|16|-21 0,1,0,0,0,0,0,0,0,0,0,0,0,0,0,1,
scooby_state_48ea0e|47|5 0,0,0,0,0,0,0,0,0,0,0,1,0,0,0,1,
scooby_state_638777|11|-3 0,0,1,0,0,0,0,0,0,0,0,0,0,0,0,1,
scooby_state_7b1c0d|47|18 0,0,1,0,0,0,0,0,0,0,0,0,0,0,0,1,
scooby_state_678c26|45|31 1,0,0,0,0,0,0,0,0,0,0,0,0,0,0,1,
scooby_state_64e196|39|-15 1,0,0,0,0,0,0,0,0,0,0,0,0,0,0,1,
scooby_state_7b5749|29|-22 0,0,0,1,0,0,0,0,0,0,0,0,0,0,0,1,
scooby_state_5dc813|57|-2 1,0,0,0,0,0,0,0,0,0,0,0,0,0,0,1,
scooby_state_7b1c9b|56|17 0,0,0,0,0,0,0,1,0,0,0,0,0,0,0,1,
scooby_state_406bc3|20|8 1,0,0,0,0,0,0,0,0,0,0,0,0,0,0,1,
scooby_state_498f60|43|-2 0,0,0,0,0,0,0,0,0,0,0,0,1,0,0,1,
scooby_state_7b1c9b|42|17 1,0,0,0,0,0,0,0,0,0,0,0,0,0,0,1,
scooby_state_649e7e|18|16 0,0,1,0,0,0,0,0,0,0,0,0,0,0,0,1,
scooby_state_683ed5|11|0 1,0,0,0,0,0,0,0,0,0,0,0,0,0,0,1,
scooby_state_638777|50|-13 0,0,0,0,0,0,0,0,0,1,0,0,0,0,0,1,
scooby_state_5dca40|41|36 0,1,0,0,0,0,0,0,0,0,0,0,0,0,0,1,
scooby_state_64e196|40|-1 0,1,0,0,0,0,0,0,0,0,0,0,0,0,0,1,
scooby_state_6390dc|17|-10 0,0,0,0,0,1,0,0,0,0,0,0,0,0,0,1,
scooby_state_7b3142|5|-58 1,0,0,0,0,0,0,0,0,0,0,0,0,0,0,1,
scooby_state_638760|30|-4 0,0,0,0,0,0,0,0,0,0,0,1,0,0,0,1,
scooby_state_649a4e|10|1 1,0,0,0,0,0,0,0,0,0,0,0,0,0,0,1,
scooby_state_64e196|44|13 0,0,0,0,0,0,0,0,0,0,0,0,0,1,0,1,
scooby_state_7b5131|8|-5 0,0,0,0,1,0,0,0,0,0,0,0,0,0,0,1,
scooby_state_638777|54|6 0,1,0,0,0,0,0,0,0,0,0,0,0,0,0,1,
scooby_state_64d0cc|20|12 0,0,0,0,0,0,0,0,0,0,0,1,0,0,0,1,
scooby_state_685020|48|-1 0,1,0,0,0,0,0,0,0,0,0,0,0,0,0,1,
scooby_state_638760|28|-6 0,0,0,0,1,0,0,0,0,0,0,0,0,0,0,1,
scooby_state_638760|54|-7 0,0,0,0,1,0,0,0,0,0,0,0,0,0,0,1,
scooby_state_548d81|54|1 1,0,0,0,0,0,0,0,0,0,0,0,0,0,0,1,
scooby_state_638760|4|0 1,0,0,0,0,0,0,0,0,0,0,0,0,0,0,1,
scooby_state_64e196|8|8 0,0,1,0,0,0,0,0,0,0,0,0,0,0,0,1,
scooby_state_406bf5|0|-32 0,0,0,1,0,0,0,0,0,0,0,0,0,0,0,1,
scooby_state_5e6f02|60|49 1,0,0,0,0,0,0,0,0,0,0,0,0,0,0,1,
scooby_state_638773|31|7 0,1,0,0,0,0,0,0,0,0,0,0,0,0,0,1,
scooby_state_54cf0a|60|3 0,0,0,0,0,0,0,0,0,0,0,1,0,0,0,1,
scooby_state_54afb6|15|0 0,0,0,0,1,0,0,0,0,0,0,0,0,0,0,1,
scooby_state_4e1579|26|-4 0,1,0,0,0,0,0,0,0,0,0,0,0,0,0,1,
scooby_state_64e196|19|-14 1,0,0,0,0,0,0,0,0,0,0,0,0,0,0,1,
scooby_state_406be1|0|-11 1,0,0,0,0,0,0,0,0,0,0,0,0,0,0,1,

scooby_action_0_deg_dist 0,13004,0,0,0,0,0,0,0,0,0,0,0,0,0,0,
scooby_action_-6_deg_dist 0,17379,91,0,13,0,0,0,0,0,0,0,0,0,0,0,
scooby_action_4_deg_dist 0,37834,72,0,17,0,30,0,0,0,0,0,0,0,0,0,
scooby_action_1_deg_dist 0,1702501,90119,0,72182,0,191651,0,0,0,0,0,0,0,0,0,
scooby_action_30_deg_dist 0,6694,2,0,3,0,0,0,0,0,0,0,0,0,0,0,
scooby_action_3_deg_dist 0,59384,1941,0,2107,0,1321,0,0,0,0,0,0,0,0,0,
scooby_action_32_deg_dist 0,4772,0,0,0,0,0,0,0,0,0,0,0,0,0,0,
scooby_action_5_deg_dist 0,28150,738,0,951,0,540,0,0,0,0,0,0,0,0,0,
scooby_action_10_deg_dist 0,13203,13,0,5,0,0,0,0,0,0,0,0,0,0,0,
scooby_action_11_deg_dist 0,26813,28,0,0,0,0,0,0,0,0,0,0,0,0,0,
scooby_action_12_deg_dist 0,9299,2,0,0,0,0,0,0,0,0,0,0,0,0,0,
scooby_action_23_deg_dist 0,5361,0,0,0,0,0,0,0,0,0,0,0,0,0,0,
scooby_action_-1_deg_dist 0,78389,1436,0,1376,0,37,0,0,0,0,0,0,0,0,0,
scooby_action_22_deg_dist 0,10248,1,0,0,0,0,0,0,0,0,0,0,0,0,0,
scooby_action_-3_deg_dist 0,22544,435,0,422,0,5,0,0,0,0,0,0,0,0,0,

scooby_track_called 2401113
scooby_track_same_address 195102
scooby_track_evict 2205755

scooby_reward_demand_called 2401113
scooby_reward_demand_pt_not_found 1513783
scooby_reward_demand_pt_found 887330
scooby_reward_demand_pt_found_total 887330
scooby_reward_demand_has_reward 46455
scooby_reward_train_called 1319931
scooby_reward_assign_reward_called 2205830
scooby_reward_no_pref 13002
scooby_reward_incorrect 1306929
scooby_reward_correct_untimely 754430
scooby_reward_correct_timely 86445
scooby_reward_out_of_bounds 45024
scooby_reward_tracker_hit 0

scooby_reward_none_low_bw 13002
scooby_reward_none_high_bw 0
scooby_reward_incorrect_low_bw 1306929
scooby_reward_incorrect_high_bw 0
scooby_reward_correct_untimely_low_bw 754430
scooby_reward_correct_untimely_high_bw 0
scooby_reward_correct_timely_low_bw 86445
scooby_reward_correct_timely_high_bw 0
scooby_reward_out_of_bounds_low_bw 45024
scooby_reward_out_of_bounds_high_bw 0
scooby_reward_tracker_hit_low_bw 0
scooby_reward_tracker_hit_high_bw 0

scooby_reward_1 0,1159535,694158,70557,29507,0,
scooby_reward_3 0,23430,14312,2390,914,0,
scooby_reward_4 0,17219,7214,2651,657,0,
scooby_reward_5 0,16350,5271,2391,855,0,
scooby_reward_10 0,8407,1083,742,879,0,
scooby_reward_11 0,11781,6163,920,1618,0,
scooby_reward_12 0,5724,980,57,944,0,
scooby_reward_22 0,4778,1509,59,1908,0,
scooby_reward_23 0,2998,29,4,1615,0,
scooby_reward_30 0,3213,577,39,2244,0,
scooby_reward_32 0,2216,12,3,2040,0,
scooby_reward_-1 0,29086,16595,4086,703,0,
scooby_reward_-3 0,12484,3888,1913,532,0,
scooby_reward_-6 0,9708,2639,633,608,0,
scooby_reward_0 13002,0,0,0,0,0,

scooby_train_called 2205754
scooby_train_compute_reward 1319931

scooby_register_fill_called 498017
scooby_register_fill_set 431202
scooby_register_fill_set_total 431202

scooby_register_prefetch_hit_called 2295412
scooby_register_prefetch_hit_set 1639992
scooby_register_prefetch_hit_set_total 1639992

scooby_pref_issue_scooby 3293194

learning_engine_featurewise.action.called 2401113
learning_engine_featurewise.action.explore 4378
learning_engine_featurewise.action.exploit 2396735
learning_engine_featurewise.action.fallback 1441543
learning_engine_featurewise.action.dyn_fallback_saved_bw 0
learning_engine_featurewise.action.dyn_fallback_saved_bw_acc 13087
learning_engine_featurewise.action.index_1_explored 287
learning_engine_featurewise.action.index_1_exploited 2056166
learning_engine_featurewise.action.index_3_explored 304
learning_engine_featurewise.action.index_3_exploited 64449
learning_engine_featurewise.action.index_4_explored 306
learning_engine_featurewise.action.index_4_exploited 37647
learning_engine_featurewise.action.index_5_explored 267
learning_engine_featurewise.action.index_5_exploited 30112
learning_engine_featurewise.action.index_10_explored 325
learning_engine_featurewise.action.index_10_exploited 12896
learning_engine_featurewise.action.index_11_explored 298
learning_engine_featurewise.action.index_11_exploited 26543
learning_engine_featurewise.action.index_12_explored 293
learning_engine_featurewise.action.index_12_exploited 9008
learning_engine_featurewise.action.index_22_explored 293
learning_engine_featurewise.action.index_22_exploited 9956
learning_engine_featurewise.action.index_23_explored 290
learning_engine_featurewise.action.index_23_exploited 5071
learning_engine_featurewise.action.index_30_explored 290
learning_engine_featurewise.action.index_30_exploited 6409
learning_engine_featurewise.action.index_32_explored 251
learning_engine_featurewise.action.index_32_exploited 4521
learning_engine_featurewise.action.index_-1_explored 297
learning_engine_featurewise.action.index_-1_exploited 80941
learning_engine_featurewise.action.index_-3_explored 299
learning_engine_featurewise.action.index_-3_exploited 23107
learning_engine_featurewise.action.index_-6_explored 275
learning_engine_featurewise.action.index_-6_exploited 17208
learning_engine_featurewise.action.index_0_explored 303
learning_engine_featurewise.action.index_0_exploited 12701
learning_engine_featurewise.learn.called 2205754
learning_engine_featurewise.learn.su_skip_PC 0
learning_engine_featurewise.learn.su_skip_PC_Delta 0

learning_engine_featurewise.q_value_histogram.bucket_0 48
learning_engine_featurewise.q_value_histogram.bucket_1 184
learning_engine_featurewise.q_value_histogram.bucket_2 1621256
learning_engine_featurewise.q_value_histogram.bucket_3 115006
learning_engine_featurewise.q_value_histogram.bucket_4 162289
learning_engine_featurewise.q_value_histogram.bucket_5 158801
learning_engine_featurewise.q_value_histogram.bucket_6 339151
learning_engine_featurewise.q_value_histogram.bucket_7 0

learning_engine_featurewise.consensus.total 2396735
learning_engine_featurewise.consensus.feature_align_PC 2184632
learning_engine_featurewise.consensus.feature_align_PC_ratio 0.91
learning_engine_featurewise.consensus.feature_align_PC_Delta 2211541
learning_engine_featurewise.consensus.feature_align_PC_Delta_ratio 0.92
learning_engine_featurewise.consensus.feature_align_all 1999662
learning_engine_featurewise.consensus.feature_align_all_ratio 0.83

learning_engine_featurewise.feature_PC_min_weight 1000000.00000000
learning_engine_featurewise.feature_PC_max_weight 0.00000000
learning_engine_featurewise.feature_PC_Delta_min_weight 1000000.00000000
learning_engine_featurewise.feature_PC_Delta_max_weight 0.00000000
unique_pcs 2020
unique_pages 2028
unique_trigger_pcs 904
total_bitmaps_seen 0
unique_bitmaps_seen 0

scooby_bw_epochs 454726
scooby_bw_level_0 447556
scooby_bw_level_1 2961
scooby_bw_level_2 1502
scooby_bw_level_3 2707

scooby_ipc_epochs 0
scooby_ipc_level_0 0
scooby_ipc_level_1 0
scooby_ipc_level_2 0
scooby_ipc_level_3 0

scooby_cache_acc_epochs 113548
scooby_cache_acc_level_0 61939
scooby_cache_acc_level_1 17502
scooby_cache_acc_level_2 14169
scooby_cache_acc_level_3 7085
scooby_cache_acc_level_4 2860
scooby_cache_acc_level_5 4466
scooby_cache_acc_level_6 1586
scooby_cache_acc_level_7 1116
scooby_cache_acc_level_8 843
scooby_cache_acc_level_9 1982

Channel_0_RQ_row_buffer_hit 34537
Channel_0_RQ_row_buffer_miss 43388
Channel_0_WQ_row_buffer_hit 9175
Channel_0_WQ_row_buffer_miss 47444
Channel_0_WQ_full 0
Channel_0_dbus_congested 73801

avg_congested_cycle 11

DRAM_bw_pochs 454726
DRAM_bw_level_0 447556
DRAM_bw_level_1 2961
DRAM_bw_level_2 1502
DRAM_bw_level_3 2707
