*************************************************
   ChampSim Multicore Out-of-Order Simulator
   Last compiled: Apr  3 2025 20:54:34
*************************************************
parsing config file: /home/zir/Pythia/config/mlop.ini

trace_0 /home/zir/ChampSim/ML-DPC/ChampSimTraces/spec17/605.mcf-s2.trace.xz
adding L2C_PREFETCHER: MLOP
Initialize SHIP state
warmup_instructions 10000000
simulation_instructions 50000000
champsim_seed 165
measure_ipc 0
measure_ipc_epoch 1000
measure_dram_bw 1
measure_dram_bw_epoch 256
measure_cache_acc 1
measure_cache_acc_epoch 1024
l1d_perfect 0
l2c_perfect 0
llc_perfect 0
l1d_semi_perfect 0
l2c_semi_perfect 0
llc_semi_perfect 0
semi_perfect_cache_page_buffer_size 64

num_cpus 1
cpu_freq 4000
dram_io_freq 2400
page_size 4096
block_size 64
max_read_per_cycle 8
max_fill_per_cycle 1
dram_channels 1
log2_dram_channels 0
dram_ranks 1
dram_banks 8
dram_rows 65536
dram_columns 128
dram_row_size 8
dram_size 4096
dram_pages 1048576

fetch_width 6
decode_width 6
exec_width 4
lq_width 2
sq_width 2
retire_width 4
scheduler_size 128
branch_mispredict_penalty 20
rob_size 256
lq_size 72
sq_size 56
num_instr_destinations_sparc 4
num_instr_destinations 2
num_instr_sources 4

itlb_set 16
itlb_way 8
itlb_rq_size 16
itlb_wq_size 16
itlb_pq_size 0
itlb_mshr_size 8
itlb_latency 1

dtlb_set 16
dtlb_way 4
dtlb_rq_size 16
dtlb_wq_size 16
dtlb_pq_size 0
dtlb_mshr_size 8
dtlb_latency 1

stlb_set 128
stlb_way 12
stlb_rq_size 32
stlb_wq_size 32
stlb_pq_size 0
stlb_mshr_size 16
stlb_latency 8

l1i_size 32
l1i_set 64
l1i_way 8
l1i_rq_size 64
l1i_wq_size 64
l1i_pq_size 8
l1i_mshr_size 8
l1i_latency 1

l1d_size 32
l1d_set 64
l1d_way 8
l1d_rq_size 64
l1d_wq_size 64
l1d_pq_size 8
l1d_mshr_size 16
l1d_latency 4

l2c_size 256
l2c_set 512
l2c_way 8
l2c_rq_size 32
l2c_wq_size 32
l2c_pq_size 32
l2c_mshr_size 32
l2c_latency 10

llc_size 2048
llc_set 2048
llc_way 16
llc_rq_size 32
llc_wq_size 32
llc_pq_size 32
llc_mshr_size 64
llc_latency 20

dram_channel_width 8
dram_wq_size 64
dram_rq_size 64
tRP 15
tRCD 15
tCAS 12.5
dram_dbus_turn_around_time 30
dram_write_high_wm 56
dram_write_low_wm 48
min_dram_writes_per_switch 16
dram_mtps 2400
dram_dbus_return_time 13

mlop_pref_degree 16
mlop_num_updates 500
mlop_l1d_thresh 2
mlop_l2c_thresh 0.75
mlop_llc_thresh 0.3
mlop_debug_level 0
mlop_blocks_in_cache 4096
mlop_blocks_in_zone 64
mlop_amt_size 2048
mlop_PF_DEGREE 16
mlop_NUM_UPDATES 500
mlop_L1D_THRESH 1000
mlop_L2C_THRESH 375
mlop_LLC_THRESH 150
mlop_ORIGIN 63
mlop_MAX_OFFSET 63
mlop_MIN_OFFSET -63
mlop_ORIGIN 63
mlop_NUM_OFFSETS 127


Heartbeat CPU  0 instructions:    1000000 cycles:     591098 heartbeat IPC: 1.69177 cumulative IPC: 1.69177 (Simulation time: 0 hr 0 min 2 sec) 
Heartbeat CPU  0 instructions:    2000000 cycles:    1226055 heartbeat IPC: 1.57491 cumulative IPC: 1.63125 (Simulation time: 0 hr 0 min 4 sec) 
Heartbeat CPU  0 instructions:    3000002 cycles:    1862471 heartbeat IPC: 1.57130 cumulative IPC: 1.61076 (Simulation time: 0 hr 0 min 6 sec) 
Heartbeat CPU  0 instructions:    4000000 cycles:    2546960 heartbeat IPC: 1.46094 cumulative IPC: 1.57050 (Simulation time: 0 hr 0 min 8 sec) 
Heartbeat CPU  0 instructions:    5000000 cycles:    3246608 heartbeat IPC: 1.42929 cumulative IPC: 1.54007 (Simulation time: 0 hr 0 min 9 sec) 
Heartbeat CPU  0 instructions:    6000001 cycles:    3806441 heartbeat IPC: 1.78625 cumulative IPC: 1.57628 (Simulation time: 0 hr 0 min 11 sec) 
Heartbeat CPU  0 instructions:    7000001 cycles:    4486932 heartbeat IPC: 1.46953 cumulative IPC: 1.56009 (Simulation time: 0 hr 0 min 13 sec) 
Heartbeat CPU  0 instructions:    8000000 cycles:    5079576 heartbeat IPC: 1.68735 cumulative IPC: 1.57493 (Simulation time: 0 hr 0 min 15 sec) 
Heartbeat CPU  0 instructions:    9000000 cycles:    5715497 heartbeat IPC: 1.57252 cumulative IPC: 1.57467 (Simulation time: 0 hr 0 min 17 sec) 
Heartbeat CPU  0 instructions:   10000003 cycles:    6352449 heartbeat IPC: 1.56998 cumulative IPC: 1.57420 (Simulation time: 0 hr 0 min 19 sec) 

Warmup complete CPU  0 instructions:   10000003 cycles:    6352449 (Simulation time: 0 hr 0 min 19 sec) 

Heartbeat CPU  0 instructions:   11000001 cycles:   10483143 heartbeat IPC: 0.24209 cumulative IPC: 0.24209 (Simulation time: 0 hr 0 min 22 sec) 
Heartbeat CPU  0 instructions:   12000000 cycles:   15803964 heartbeat IPC: 0.18794 cumulative IPC: 0.21161 (Simulation time: 0 hr 0 min 25 sec) 
Heartbeat CPU  0 instructions:   13000000 cycles:   21071637 heartbeat IPC: 0.18984 cumulative IPC: 0.20382 (Simulation time: 0 hr 0 min 29 sec) 
Heartbeat CPU  0 instructions:   14000002 cycles:   25441671 heartbeat IPC: 0.22883 cumulative IPC: 0.20954 (Simulation time: 0 hr 0 min 32 sec) 
Heartbeat CPU  0 instructions:   15000002 cycles:   29767913 heartbeat IPC: 0.23115 cumulative IPC: 0.21353 (Simulation time: 0 hr 0 min 35 sec) 
Heartbeat CPU  0 instructions:   16000000 cycles:   34195871 heartbeat IPC: 0.22584 cumulative IPC: 0.21549 (Simulation time: 0 hr 0 min 39 sec) 
Heartbeat CPU  0 instructions:   17000002 cycles:   39265480 heartbeat IPC: 0.19725 cumulative IPC: 0.21268 (Simulation time: 0 hr 0 min 42 sec) 
Heartbeat CPU  0 instructions:   18000001 cycles:   44052890 heartbeat IPC: 0.20888 cumulative IPC: 0.21220 (Simulation time: 0 hr 0 min 45 sec) 
Heartbeat CPU  0 instructions:   19000001 cycles:   49290727 heartbeat IPC: 0.19092 cumulative IPC: 0.20960 (Simulation time: 0 hr 0 min 48 sec) 
Heartbeat CPU  0 instructions:   20000000 cycles:   53220813 heartbeat IPC: 0.25445 cumulative IPC: 0.21336 (Simulation time: 0 hr 0 min 52 sec) 
Heartbeat CPU  0 instructions:   21000003 cycles:   57743288 heartbeat IPC: 0.22112 cumulative IPC: 0.21405 (Simulation time: 0 hr 0 min 55 sec) 
Heartbeat CPU  0 instructions:   22000003 cycles:   63190428 heartbeat IPC: 0.18358 cumulative IPC: 0.21113 (Simulation time: 0 hr 0 min 58 sec) 
Heartbeat CPU  0 instructions:   23000000 cycles:   67287730 heartbeat IPC: 0.24406 cumulative IPC: 0.21334 (Simulation time: 0 hr 1 min 2 sec) 
Heartbeat CPU  0 instructions:   24000000 cycles:   71498777 heartbeat IPC: 0.23747 cumulative IPC: 0.21490 (Simulation time: 0 hr 1 min 5 sec) 
Heartbeat CPU  0 instructions:   25000000 cycles:   76542267 heartbeat IPC: 0.19828 cumulative IPC: 0.21371 (Simulation time: 0 hr 1 min 8 sec) 
Heartbeat CPU  0 instructions:   26000001 cycles:   80816348 heartbeat IPC: 0.23397 cumulative IPC: 0.21487 (Simulation time: 0 hr 1 min 12 sec) 
Heartbeat CPU  0 instructions:   27000000 cycles:   85815089 heartbeat IPC: 0.20005 cumulative IPC: 0.21394 (Simulation time: 0 hr 1 min 15 sec) 
Heartbeat CPU  0 instructions:   28000000 cycles:   90407568 heartbeat IPC: 0.21775 cumulative IPC: 0.21415 (Simulation time: 0 hr 1 min 18 sec) 
Heartbeat CPU  0 instructions:   29000000 cycles:   94786234 heartbeat IPC: 0.22838 cumulative IPC: 0.21485 (Simulation time: 0 hr 1 min 22 sec) 
Heartbeat CPU  0 instructions:   30000003 cycles:   99163893 heartbeat IPC: 0.22843 cumulative IPC: 0.21549 (Simulation time: 0 hr 1 min 25 sec) 
Heartbeat CPU  0 instructions:   31000001 cycles:  103390637 heartbeat IPC: 0.23659 cumulative IPC: 0.21641 (Simulation time: 0 hr 1 min 28 sec) 
Heartbeat CPU  0 instructions:   32000000 cycles:  107839819 heartbeat IPC: 0.22476 cumulative IPC: 0.21678 (Simulation time: 0 hr 1 min 32 sec) 
Heartbeat CPU  0 instructions:   33000000 cycles:  112999953 heartbeat IPC: 0.19379 cumulative IPC: 0.21566 (Simulation time: 0 hr 1 min 35 sec) 
Heartbeat CPU  0 instructions:   34000000 cycles:  117490257 heartbeat IPC: 0.22270 cumulative IPC: 0.21595 (Simulation time: 0 hr 1 min 38 sec) 
Heartbeat CPU  0 instructions:   35000002 cycles:  121864862 heartbeat IPC: 0.22859 cumulative IPC: 0.21643 (Simulation time: 0 hr 1 min 42 sec) 
Heartbeat CPU  0 instructions:   36000000 cycles:  126694863 heartbeat IPC: 0.20704 cumulative IPC: 0.21605 (Simulation time: 0 hr 1 min 45 sec) 
Heartbeat CPU  0 instructions:   37000001 cycles:  131074506 heartbeat IPC: 0.22833 cumulative IPC: 0.21648 (Simulation time: 0 hr 1 min 48 sec) 
Heartbeat CPU  0 instructions:   38000000 cycles:  136393051 heartbeat IPC: 0.18802 cumulative IPC: 0.21532 (Simulation time: 0 hr 1 min 52 sec) 
Heartbeat CPU  0 instructions:   39000001 cycles:  141143196 heartbeat IPC: 0.21052 cumulative IPC: 0.21515 (Simulation time: 0 hr 1 min 55 sec) 
Heartbeat CPU  0 instructions:   40000000 cycles:  145663544 heartbeat IPC: 0.22122 cumulative IPC: 0.21535 (Simulation time: 0 hr 1 min 58 sec) 
Heartbeat CPU  0 instructions:   41000002 cycles:  150063952 heartbeat IPC: 0.22725 cumulative IPC: 0.21571 (Simulation time: 0 hr 2 min 2 sec) 
Heartbeat CPU  0 instructions:   42000000 cycles:  155285288 heartbeat IPC: 0.19152 cumulative IPC: 0.21486 (Simulation time: 0 hr 2 min 5 sec) 
Heartbeat CPU  0 instructions:   43000003 cycles:  159347785 heartbeat IPC: 0.24615 cumulative IPC: 0.21569 (Simulation time: 0 hr 2 min 9 sec) 
Heartbeat CPU  0 instructions:   44000000 cycles:  163849549 heartbeat IPC: 0.22213 cumulative IPC: 0.21588 (Simulation time: 0 hr 2 min 12 sec) 
Heartbeat CPU  0 instructions:   45000001 cycles:  168591264 heartbeat IPC: 0.21089 cumulative IPC: 0.21573 (Simulation time: 0 hr 2 min 15 sec) 
Heartbeat CPU  0 instructions:   46000000 cycles:  173455154 heartbeat IPC: 0.20560 cumulative IPC: 0.21544 (Simulation time: 0 hr 2 min 19 sec) 
Heartbeat CPU  0 instructions:   47000000 cycles:  177969124 heartbeat IPC: 0.22153 cumulative IPC: 0.21560 (Simulation time: 0 hr 2 min 22 sec) 
Heartbeat CPU  0 instructions:   48000000 cycles:  182764725 heartbeat IPC: 0.20852 cumulative IPC: 0.21540 (Simulation time: 0 hr 2 min 25 sec) 
Heartbeat CPU  0 instructions:   49000000 cycles:  187633662 heartbeat IPC: 0.20538 cumulative IPC: 0.21514 (Simulation time: 0 hr 2 min 29 sec) 
Heartbeat CPU  0 instructions:   50000000 cycles:  192893956 heartbeat IPC: 0.19010 cumulative IPC: 0.21443 (Simulation time: 0 hr 2 min 32 sec) 
Heartbeat CPU  0 instructions:   51000002 cycles:  197021994 heartbeat IPC: 0.24225 cumulative IPC: 0.21503 (Simulation time: 0 hr 2 min 35 sec) 
Heartbeat CPU  0 instructions:   52000000 cycles:  201446859 heartbeat IPC: 0.22600 cumulative IPC: 0.21528 (Simulation time: 0 hr 2 min 39 sec) 
Heartbeat CPU  0 instructions:   53000003 cycles:  205766016 heartbeat IPC: 0.23153 cumulative IPC: 0.21563 (Simulation time: 0 hr 2 min 42 sec) 
Heartbeat CPU  0 instructions:   54000000 cycles:  211176027 heartbeat IPC: 0.18484 cumulative IPC: 0.21482 (Simulation time: 0 hr 2 min 45 sec) 
Heartbeat CPU  0 instructions:   55000000 cycles:  216060393 heartbeat IPC: 0.20473 cumulative IPC: 0.21458 (Simulation time: 0 hr 2 min 49 sec) 
Heartbeat CPU  0 instructions:   56000000 cycles:  220528352 heartbeat IPC: 0.22382 cumulative IPC: 0.21478 (Simulation time: 0 hr 2 min 52 sec) 
Heartbeat CPU  0 instructions:   57000001 cycles:  224988670 heartbeat IPC: 0.22420 cumulative IPC: 0.21497 (Simulation time: 0 hr 2 min 55 sec) 
Heartbeat CPU  0 instructions:   58000000 cycles:  229585184 heartbeat IPC: 0.21756 cumulative IPC: 0.21502 (Simulation time: 0 hr 2 min 59 sec) 
Heartbeat CPU  0 instructions:   59000000 cycles:  234779402 heartbeat IPC: 0.19252 cumulative IPC: 0.21451 (Simulation time: 0 hr 3 min 2 sec) 
Heartbeat CPU  0 instructions:   60000000 cycles:  239746479 heartbeat IPC: 0.20133 cumulative IPC: 0.21423 (Simulation time: 0 hr 3 min 5 sec) 
Finished CPU 0 instructions: 50000000 cycles: 233394207 cumulative IPC: 0.21423 (Simulation time: 0 hr 3 min 5 sec) 

ChampSim completed all CPUs

[ROI Statistics]
Core_0_instructions 50000000
Core_0_cycles 233394207
Core_0_IPC 0.21423

Core_0_branch_prediction_accuracy 97.85477
Core_0_branch_MPKI 3.90788
Core_0_average_ROB_occupancy_at_mispredict 77.49347

Core_0_L1D_total_access 19291986
Core_0_L1D_total_hit 11599409
Core_0_L1D_total_miss 7692577
Core_0_L1D_loads 16071662
Core_0_L1D_load_hit 8532666
Core_0_L1D_load_miss 7538996
Core_0_L1D_RFOs 3220324
Core_0_L1D_RFO_hit 3066743
Core_0_L1D_RFO_miss 153581
Core_0_L1D_prefetches 0
Core_0_L1D_prefetch_hit 0
Core_0_L1D_prefetch_miss 0
Core_0_L1D_writebacks 0
Core_0_L1D_writeback_hit 0
Core_0_L1D_writeback_miss 0
Core_0_L1D_prefetch_requested 0
Core_0_L1D_prefetch_dropped 0
Core_0_L1D_prefetch_issued 0
Core_0_L1D_prefetch_filled 0
Core_0_L1D_prefetch_useful 0
Core_0_L1D_prefetch_useless 0
Core_0_L1D_prefetch_late 0
Core_0_L1D_average_miss_latency 76.06046

Core_0_L1D_rq_access 20648704
Core_0_L1D_rq_forward 0
Core_0_L1D_rq_merged 3777072
Core_0_L1D_rq_to_cache 16871632
Core_0_L1D_rq_full 0

Core_0_L1D_wq_access 3596625
Core_0_L1D_wq_forward 0
Core_0_L1D_wq_merged 4470
Core_0_L1D_wq_to_cache 3592155
Core_0_L1D_wq_full 0

Core_0_L1D_pq_access 0
Core_0_L1D_pq_forward 0
Core_0_L1D_pq_merged 0
Core_0_L1D_pq_to_cache 0
Core_0_L1D_pq_full 0

Core_0_L1D_acc_epochs 233702
Core_0_L1D_acc_level_0 233702
Core_0_L1D_acc_level_1 0
Core_0_L1D_acc_level_2 0
Core_0_L1D_acc_level_3 0
Core_0_L1D_acc_level_4 0
Core_0_L1D_acc_level_5 0
Core_0_L1D_acc_level_6 0
Core_0_L1D_acc_level_7 0
Core_0_L1D_acc_level_8 0
Core_0_L1D_acc_level_9 0

Core_0_L1I_total_access 17618195
Core_0_L1I_total_hit 17618195
Core_0_L1I_total_miss 0
Core_0_L1I_loads 17618195
Core_0_L1I_load_hit 17618195
Core_0_L1I_load_miss 0
Core_0_L1I_RFOs 0
Core_0_L1I_RFO_hit 0
Core_0_L1I_RFO_miss 0
Core_0_L1I_prefetches 0
Core_0_L1I_prefetch_hit 0
Core_0_L1I_prefetch_miss 0
Core_0_L1I_writebacks 0
Core_0_L1I_writeback_hit 0
Core_0_L1I_writeback_miss 0
Core_0_L1I_prefetch_requested 0
Core_0_L1I_prefetch_dropped 0
Core_0_L1I_prefetch_issued 0
Core_0_L1I_prefetch_filled 0
Core_0_L1I_prefetch_useful 0
Core_0_L1I_prefetch_useless 0
Core_0_L1I_prefetch_late 0
Core_0_L1I_average_miss_latency -nan

Core_0_L1I_rq_access 50000008
Core_0_L1I_rq_forward 0
Core_0_L1I_rq_merged 32381813
Core_0_L1I_rq_to_cache 17618195
Core_0_L1I_rq_full 0

Core_0_L1I_wq_access 0
Core_0_L1I_wq_forward 0
Core_0_L1I_wq_merged 0
Core_0_L1I_wq_to_cache 0
Core_0_L1I_wq_full 0

Core_0_L1I_pq_access 0
Core_0_L1I_pq_forward 0
Core_0_L1I_pq_merged 0
Core_0_L1I_pq_to_cache 0
Core_0_L1I_pq_full 0

Core_0_L1I_acc_epochs 233702
Core_0_L1I_acc_level_0 233702
Core_0_L1I_acc_level_1 0
Core_0_L1I_acc_level_2 0
Core_0_L1I_acc_level_3 0
Core_0_L1I_acc_level_4 0
Core_0_L1I_acc_level_5 0
Core_0_L1I_acc_level_6 0
Core_0_L1I_acc_level_7 0
Core_0_L1I_acc_level_8 0
Core_0_L1I_acc_level_9 0

Core_0_L2C_total_access 7889907
Core_0_L2C_total_hit 196201
Core_0_L2C_total_miss 7693706
Core_0_L2C_loads 7538996
Core_0_L2C_load_hit 10582
Core_0_L2C_load_miss 7528414
Core_0_L2C_RFOs 153581
Core_0_L2C_RFO_hit 982
Core_0_L2C_RFO_miss 152599
Core_0_L2C_prefetches 12081
Core_0_L2C_prefetch_hit 13
Core_0_L2C_prefetch_miss 12068
Core_0_L2C_writebacks 185249
Core_0_L2C_writeback_hit 184624
Core_0_L2C_writeback_miss 625
Core_0_L2C_prefetch_requested 433027
Core_0_L2C_prefetch_dropped 0
Core_0_L2C_prefetch_issued 433027
Core_0_L2C_prefetch_filled 152034
Core_0_L2C_prefetch_useful 111567
Core_0_L2C_prefetch_useless 40467
Core_0_L2C_prefetch_late 248
Core_0_L2C_average_miss_latency 62.05188

Core_0_L2C_rq_access 7692579
Core_0_L2C_rq_forward 0
Core_0_L2C_rq_merged 0
Core_0_L2C_rq_to_cache 7692578
Core_0_L2C_rq_full 0

Core_0_L2C_wq_access 185249
Core_0_L2C_wq_forward 1
Core_0_L2C_wq_merged 0
Core_0_L2C_wq_to_cache 185249
Core_0_L2C_wq_full 0

Core_0_L2C_pq_access 433027
Core_0_L2C_pq_forward 0
Core_0_L2C_pq_merged 3235
Core_0_L2C_pq_to_cache 429792
Core_0_L2C_pq_full 0

Core_0_L2C_acc_epochs 233702
Core_0_L2C_acc_level_0 221512
Core_0_L2C_acc_level_1 987
Core_0_L2C_acc_level_2 1089
Core_0_L2C_acc_level_3 1072
Core_0_L2C_acc_level_4 1120
Core_0_L2C_acc_level_5 1236
Core_0_L2C_acc_level_6 1228
Core_0_L2C_acc_level_7 1380
Core_0_L2C_acc_level_8 1358
Core_0_L2C_acc_level_9 2720

Core_0_LLC_total_access 7966780
Core_0_LLC_total_hit 5740868
Core_0_LLC_total_miss 2225912
Core_0_LLC_loads 7528318
Core_0_LLC_load_hit 5604846
Core_0_LLC_load_miss 1923472
Core_0_LLC_RFOs 152567
Core_0_LLC_RFO_hit 2969
Core_0_LLC_RFO_miss 149598
Core_0_LLC_prefetches 101387
Core_0_LLC_prefetch_hit 9626
Core_0_LLC_prefetch_miss 91761
Core_0_LLC_writebacks 184508
Core_0_LLC_writeback_hit 123427
Core_0_LLC_writeback_miss 61081
Core_0_LLC_prefetch_requested 0
Core_0_LLC_prefetch_dropped 0
Core_0_LLC_prefetch_issued 0
Core_0_LLC_prefetch_filled 235757
Core_0_LLC_prefetch_useful 120642
Core_0_LLC_prefetch_useless 114963
Core_0_LLC_prefetch_late 54
Core_0_LLC_average_miss_latency 117.64438

Core_0_LLC_rq_access 7680886
Core_0_LLC_rq_forward 0
Core_0_LLC_rq_merged 0
Core_0_LLC_rq_to_cache 7680886
Core_0_LLC_rq_full 0

Core_0_LLC_wq_access 184508
Core_0_LLC_wq_forward 0
Core_0_LLC_wq_merged 0
Core_0_LLC_wq_to_cache 184508
Core_0_LLC_wq_full 0

Core_0_LLC_pq_access 417595
Core_0_LLC_pq_forward 0
Core_0_LLC_pq_merged 2
Core_0_LLC_pq_to_cache 417593
Core_0_LLC_pq_full 0

Core_0_LLC_acc_epochs 234128
Core_0_LLC_acc_level_0 175247
Core_0_LLC_acc_level_1 9625
Core_0_LLC_acc_level_2 8430
Core_0_LLC_acc_level_3 6072
Core_0_LLC_acc_level_4 4222
Core_0_LLC_acc_level_5 7612
Core_0_LLC_acc_level_6 5342
Core_0_LLC_acc_level_7 4776
Core_0_LLC_acc_level_8 4225
Core_0_LLC_acc_level_9 8577

Core_0_major_page_fault 0
Core_0_minor_page_fault 6272

[MLOP] History of tracked zone:
IIIIIIIIIIIIIIIIIIIIIIIIIIIIIIIIIIIIIIIIIIIIIIIIIIIIIIIIIIIIIIII
IIIIIIIIIIIIIIIIIIIIIIIIIIIIIIIIIII44IIIII4II4III4II2IIIIII2IIAI
IIIIIIIIIIIIIIIIIIIIIIIIIIIIIIII44I44II4II4II44II2II2III2IIAIIAI
IIIIIIIIIIIIIIIIIIIIIIIIIIII44II44I44I44II4II24II2II2IIA2IIAIIAI
IIIIIIIIIIIIIIIIIIIIIIIIIIII44II44I44444II44I24II24I22IA2IIA2IAA
IIIIIIIIIIIIIIIIIIIIIIIII44I44II44I44444II24I24II24IA2IA2IIA2IAA
IIIIIIIIIIIIIIIIIIIIII44I44I44II44I44442II24I22IIA4IA2IA2IIA2IAA
IIIIIIIIIIIIIIIIIIIIII44I44I444I44I44442II24I22IIA4IA2IAAIIA2IAA
IIIIIIIIIIIIIIIIIIIIII44I444444I44I444424I22I22IIA2IAAIAAIIA2IAA
IIIIIIIIIIIIIIIIII44II44I444444I44I244424I22IA2IIA2IAAIAAIIA2IAA
IIIIIIIIIIIIIII44I44II44I444444I24I244424IA2IA2IIA2IAAIAAIIA2IAA
IIIIIIIIIIIIIII44I444I44I444444I24I224424IA2IAAIIA2IAAIAAIIA2IAA
IIIIIIIIIIIIIII444444I44I444444I22I224422IAAIAAIIA2IAAIAAIIA2IAA
IIIIIIIIIII44II444444444I444244I22I224A22IAAIAAIIA2IAAIAAIIA2IAA
IIIIIIII44I44II444444444I244244I22IA24A22IAAIAAIIA2IAAIAAIIA2IAA
IIIIIIII44I444I444444444I244224I22IA24AA2IAAIAAIIA2IAAIAAIIA2IAA
IIIII44I44I444I444444424I244224IA2IA24AA2IAAIAAIIA2IAAIAAIIA2IAA
IIIII44I444444I444444424I224224IA2IAA4AA2IAAIAAIIA2IAAIAAIIA2IAA
I44II44I444444I444244424I224A24IA2IAA4AA2IAAIAAIIA2IAAIAAIIA2IAA
I44II44I444444I244244424IA24A24IA2IAA4AA2IAAIAAIIA2IAAIAAIIA2IAA
I444I44I444444I244224424IA24AA4IA2IAA4AA2IAAIAAIIA2IAAIAAIIA2IAA
I444I44I444424I2442244A4IA24AA4IA2IAA4AA2IAAIAAIIA2IAAIAAIIA2IAA
4444I44I444424I2242244A2IAA4AA4IA2IAA4AA2IAAIAAIIA2IAAIAAIIA2IAA
4444I44I244424I224A244A2IAA4AA4IA2IAA4AA2IAAIAAIIA2IAAIAAIIA2IAA
4444I24I244424IA24A244A2IAA4AA4IA2IAA4AA2IAAIAAIIA2IAAIAAIIA2IAA
4444I24I224424IA24AA44A2IAA4AA4IA2IAA4AA2IAAIAAIIA2IAAIAAIIA2IAA
4244I24I224A24IA24AA44A2IAA4AA4IA2IAA4AA2IAAIAAIIA2IAAIAAIIA2IAA
4244I22I224A22IAA4AA44A2IAA4AA4IA2IAA4AA2IAAIAAIIA2IAAIAAIIA2IAA
4244I22IA24A22IAA4AA44A2IAA4AA4IA2IAA4AA2IAAIAAIIA2IAAIAAIIA2IAA
4224I22IA24AA2IAA4AA44A2IAA4AA4IA2IAA4AA2IAAIAAIIA2IAAIAAIIA2IAA
4224IA2IA24AA2IAA4AA44A2IAA4AA4IA2IAA4AA2IAAIAAIIA2IAAIAAIIA2IAA
4224IA2IAA4AA2IAA4AA44A2IAA4AA4IA2IAA4AA2IAAIAAIIA2IAAIAAIIA2IAA
4A24IA2IAA4AA2IAA4AA44A2IAA4AA4IA2IAA4AA2IAAIAAIIA2IAAIAAIIA2IAA
4AA4IA2IAA4AA2IAA4AA44A2IAA4AA4IA2IAA4AA2IAAIAAIIA2IAAIAAIIA2IAA
4AA4IA2IAA4AA2IAA4AA44A2IAA4AA4IA2IAA4AA2IAAIAAIIA2IIAIAAIIA2IAA
4AA4IA2IAA4AA2IAA4AA44A2IIA4AA4IA2IAA4AA2IAAIAAIIA2IIAIAAIIA2IAA
4AA4IA2IIA4AA2IAA4AA44A2IIA4AA4IA2IAA4AA2IAAIAAIIA2IIAIAAIIA2IAA
4AA4IA2IIA4AA2IAA4AA44A2IIA4AA4IA2IAA4IA2IAAIAAIIA2IIAIAAIIA2IAA
4AA4IA2IIA4AA2IAA4AA44A2IIA4AA4IA2IAA4IA2IAAIIAIIA2IIAIAAIIA2IAA
4AA4IA2IIA4AA2IAA4AA44A2IIA4IA4IA2IAA4IA2IAAIIAIIA2IIAIAAIIA2IAA
4AA4IA2IIA4AA2IAA4IA44A2IIA4IA4IA2IAA4IA2IAAIIAIIA2IIAIAAIIA2IAA
4AA4II2IIA4AA2IAA4IA44A2IIA4IA4IA2IAA4IA2IAAIIAIIA2IIAIAAIIA2IAA
4AA4II2IIA4IA2IAA4IA44A2IIA4IA4IA2IAA4IA2IAAIIAIIA2IIAIAAIIA2IAA
4AA4II2IIA4IA2IAA4IA44A2IIA4IA4IA2IAA4IA2IAAIIAIII2IIAIAAIIA2IAA
4AA4II2IIA4IA2IAA4IA44A2IIA4IA4IA2IAA4IA2IAAIIAIII2IIIIAAIIA2IAA
4AA4II2IIA4IA2IAA4IA44A2IIA4IA4IA2IAA4IA2IIAIIAIII2IIIIAAIIA2IAA
4AA4II2IIA4IA2IAA4IA44A2IIA4IA4IA2IAA4II2IIAIIAIII2IIIIAAIIA2IAA
4AA4II2IIA4IA2IAA4IA44A2IIA4IA4IA2IAA4II2IIAIIAIIIIIIIIAAIIA2IAA
4AA4II2IIA4IA2IAA4IA44A2IIA4IA4IA2IAA4IIIIIAIIAIIIIIIIIAAIIA2IAA
4AA4II2IIA4IA2IAA4IA44A2IIA4IA4II2IAA4IIIIIAIIAIIIIIIIIAAIIA2IAA
4AA4II2IIA4IA2IAA4IA44A2IIA4IA4II2IAI4IIIIIAIIAIIIIIIIIAAIIA2IAA
4AA4II2IIA4IA2IAA4IA44A2IIA4IA4IIIIAI4IIIIIAIIAIIIIIIIIAAIIA2IAA
4AA4II2IIA4IA2IAA4IA44A2IIA4II4IIIIAI4IIIIIAIIAIIIIIIIIAAIIA2IAA
4AA4II2IIA4IA2IAA4IA44I2IIA4II4IIIIAI4IIIIIAIIAIIIIIIIIAAIIA2IAA
4AA4II2IIA4IA2IAA4IA44I2III4II4IIIIAI4IIIIIAIIAIIIIIIIIAAIIA2IAA
4AA4II2IIA4II2IAA4IA44I2III4II4IIIIAI4IIIIIAIIAIIIIIIIIAAIIA2IAA
4AA4II2IIA4II2IAA4IA44IIIII4II4IIIIAI4IIIIIAIIAIIIIIIIIAAIIA2IAA
4AA4II2IIA4IIIIAA4IA44IIIII4II4IIIIAI4IIIIIAIIAIIIIIIIIAAIIA2IAA
4AA4II2III4IIIIAA4IA44IIIII4II4IIIIAI4IIIIIAIIAIIIIIIIIAAIIA2IAA
4AI4II2III4IIIIAA4IA44IIIII4II4IIIIAI4IIIIIAIIAIIIIIIIIAAIIA2IAA
4AI4IIIIII4IIIIAA4IA44IIIII4II4IIIIAI4IIIIIAIIAIIIIIIIIAAIIA2IAA
4AI4IIIIII4IIIIAA4IA44IIIII4II4IIIIA44IIII4AIIAII4II2IIAAIIA2IAA
4AI4IIIIII4IIIIAA4IA44IIIII4II4I44IA44I4II4AIIAII2II2IIAAIIA2IAA
4AI4IIIIII4IIIIAA4IA44IIIII4II4I44IA44I4II4AIIAII24I22IAAIIA2IAA
4AI4IIIIII4IIIIAA4IA44IIIII4444I44IA44I4II4AI2AII24I22IAAIIA2IAA
4AI4IIIIII4IIIIAA4IA44III444444I44IA44I4II2AI2AII24IA2IAAIIA2IAA
4AI4IIIIII4IIIIAA4IA4444I444444I44IA44I2II2AI2AIIA4IA2IAAIIA2IAA
4AI4IIIIII4IIIIAA4IA4444I444444I44IA44I24I2AI2AIIA4IAAIAAIIA2IAA
4AI4IIIIII4IIIIAA44A4444I444444I44IA44I24I2AIAAIIA4IAAIAAIIA2IAA
4AI4IIIIII4IIIIAA44A4444I444444I24IA44I24IAAIAAIIA4IAAIAAIIA2IAA
4AI4IIIIII4IIIIAA44A4444I444444I24IA24I24IAAIAAIIA4IAAIAAIIA2IAA
4AI4IIIIII444IIAA44A4444I444244I24IA24A24IAAIAAIIA4IAAIAAIIA2IAA
4AI4IIIIII444IIAA44A4444I444244I22IA24A24IAAIAAIIA4IAAIAAIIA2IAA
4AI4IIII44444IIAA44A4444I244244I22IA24A24IAAIAAIIA4IAAIAAIIA2IAA
4AI4I44I44444IIAA44A4424I244244IA2IA24A24IAAIAAIIA4IAAIAAIIA2IAA
4AI4I44I444444IAA44A4424I244224IA2IA24AA4IAAIAAIIA4IAAIAAIIA2IAA
4AI4I44I444444IAA44A4424I224224IA2IAA4AA4IAAIAAIIA4IAAIAAIIA2IAA
4A44I44I444444IAA42A4424I224A24IA2IAA4AA4IAAIAAIIA4IAAIAAIIA2IAA
4A44I44I444444IAA42A4424IA24A24IA2IAA4AA4IAAIAAIIA4IAAIAAIIA2IAA
4A44I44I444444IAA42A4424IA24AA4IA2IAA4AA4IAAIAAIIA4IAAIAAIIA2IAA
4A44I44I444424IAA42A44A4IA24AA4IA2IAA4AA4IAAIAAIIA4IAAIAAIIA2IAA
4A44I44I444424IAA42A44A4IAA4AA4IA2IAA4AA4IAAIAAIIA4IAAIAAIIA2IAA
4A44I44I244424IAA4AA44A4IAA4AA4IA2IAA4AA4IAAIAAIIA4IAAIAAIIA2IAA
4A44I24I244424IAA4AA44A4IAA4AA4IA2IAA4AA4IAAIAAIIA4IAAIAAIIA2IAA
4A44I24I224424IAA4AA44A4IAA4AA4IA2IAA4AA4IAAIAAIIA4IAAIAAIIA2IAA
4A44I24I224A24IAA4AA44A4IAA4AA4IA2IAA4AA4IAAIAAIIA4IAAIAAIIA2IAA
4A44I22I224A24IAA4AA44A4IAA4AA4IA2IAA4AA4IAAIAAIIA4IAAIAAIIA2IAA
4A44I22IA24A24IAA4AA44A4IAA4AA4IA2IAA4AA4IAAIAAIIA4IAAIAAIIA2IAA
4A24I22IA24AA4IAA4AA44A4IAA4AA4IA2IAA4AA4IAAIAAIIA4IAAIAAIIA2IAA
4A24IA2IA24AA4IAA4AA44A4IAA4AA4IA2IAA4AA4IAAIAAIIA4IAAIAAIIA2IAA
4A24IA2IAA4AA4IAA4AA44A4IAA4AA4IA2IAA4AA4IAAIAAIIA4IAAIAAIIA2IAA
4AA4IA2IAA4AA4IAA4AA44A4IAA4AA4IA2IAA4AA4IAAIAAIIA4IAAIAAIIA2IAA
4AA4IA2IAA4AA4IAA4AA44A4IAA4AA4IA2IAA4AA4IIAIAAIIA4IAAIAAIIA2IAA
4AA4IA2IAA4AA4IAA4AA44A4IAA4AA4IAIIAA4AA4IIAIAAIIA4IAAIAAIIA2IAA
4AA4IA2IAA4AA4IAA4AA44A4IIA4AA4IAIIAA4AA4IIAIAAIIA4IAAIAAIIA2IAA
4AA4IA2IIA4AA4IAA4AA44A4IIA4AA4IAIIAA4AA4IIAIAAIIA4IAAIAAIIA2IAA
4AA4IA2IIA4AA4IAA4AA44A4IIA4AA4IAIIAA4AA4IIAIAAIIA4IAIIAAIIA2IAA
4AA4IA2IIA4AA4IAA4AA44A4IIA4AA4IAIIAA4AA4IIAIAIIIA4IAIIAAIIA2IAA
4AA4IA2IIA4AA4IAA4AA44A4IIA4AA4IAIIAA4AI4IIAIAIIIA4IAIIAAIIA2IAA
4AA4IA2IIA4AA4IAA4AA44A4IIA4AI4IAIIAA4AI4IIAIAIIIA4IAIIAAIIA2IAA
4AA4IA2IIA4AA4IAI4AA44A4IIA4AI4IAIIAA4AI4IIAIAIIIA4IAIIAAIIA2IAA
4AA4IA2IIA4AI4IAI4AA44A4IIA4AI4IAIIAA4AI4IIAIAIIIA4IAIIAAIIA2IAA
4AI4IA2IIA4AI4IAI4AA44A4IIA4AI4IAIIAA4AI4IIAIAIIIA4IAIIAAIIA2IAA
4AI4IA2IIA4AI4IAI4AA44A4IIA4AI4IAIIAA4AI4IIAIAIIIA4IAIIIAIIA2IAA
4AI4IA2IIA4AI4IAI4AA44A4IIA4AI4IAIIAA4AI4IIAIIIIIA4IAIIIAIIA2IAA
4AI4IA2IIA4AI4IAI4AA44A4IIA4AI4IIIIAA4AI4IIAIIIIIA4IAIIIAIIA2IAA
4AI4IA2IIA4II4IAI4AA44A4IIA4AI4IIIIAA4AI4IIAIIIIIA4IAIIIAIIA2IAA
4AI4IA2IIA4II4IAI4AI44A4IIA4AI4IIIIAA4AI4IIAIIIIIA4IAIIIAIIA2IAA
4AI4IAIIIA4II4IAI4AI44A4IIA4AI4IIIIAA4AI4IIAIIIIIA4IAIIIAIIA2IAA
4AI4IAIIIA4II4IAI4AI44A4IIA4AI4IIIIAA4A44I4AIIIIIA4IAIIIAIIA2IAA
4AI4IAIIIA4II4IAI4AI44A4IIA4AI4I44IAA4A44I4AII4IIA4IAIIIAIIA2IAA
4AI4IAIIIA4II4IAI4AI44A4IIA4AI4I44IAA4A44I4AII4IIA4IA2IIAIIA2IAA
4AI4IAIIIA4II4IAI4AI44A4IIA4A44I44IAA4A44I4AI24IIA4IA2IAAIIA2IAA
4AI4IAIIIA4II4IAI4AI44A4I4A4A44I44IAA4A44I2AI24IIA4IA2IAAIIA2IAA
4AI4IAIIIA4II4IAI4AI44A4I4A4A44I44IAA4A24I2AI24IIA4IA2IAAIIA2IAA
4AI4IAIIIA4II4IAI4AI44A4I4A4A44I44IAA4A24I2AI22IIA4IA2IAAIIA2IAA
4AI4IAIIIA4II4IAI4AI44A4I4A4A44I44IAA4A24I2AI22IIA4IAAIAAIIA2IAA
4AI4IAIIIA4II4IAI4A444A4I4A4A44I44IAA4A24I2AIA2IIA4IAAIAAIIA2IAA
4AI4IAIIIA4II4IA44A444A4I4A4A44I24IAA4A24IAAIA2IIA4IAAIAAIIA2IAA
4AI4IAIIIA4II4IA44A444A4I4A4A44I24IAA4A24IAAIAAIIA4IAAIAAIIA2IAA
4AI4IAIIIA4444IA44A444A4I4A4A44I24IAA4A24IAAIAAIIA4IAAIAAIIA2IAA
4AI4IAIIIA4444IA44A444A4I4A4A44I22IAA4A24IAAIAAIIA4IAAIAAIIA2IAA
4AI4IAII4A4444IA44A444A4I2A4A44I22IAA4A24IAAIAAIIA4IAAIAAIIA2IAA
4AI4IA4I4A4444IA44A444A4I2A4A44IA2IAA4A24IAAIAAIIA4IAAIAAIIA2IAA
4AI4IA4I4A4444IA44A444A4I2A4A24IA2IAA4AA4IAAIAAIIA4IAAIAAIIA2IAA
4A44IA4I4A4444IA44A444A4I2A4A24IA2IAA4AA4IAAIAAIIA4IAAIAAIIA2IAA
4A44IA4I4A4444IA44A444A4IAA4A24IA2IAA4AA4IAAIAAIIA4IAAIAAIIA2IAA
4A44IA4I4A4444IA44A244A4IAA4AA4IA2IAA4AA4IAAIAAIIA4IAAIAAIIA2IAA
4A44IA4I4A4444IA24A244A4IAA4AA4IA2IAA4AA4IAAIAAIIA4IAAIAAIIA2IAA
4A44IA4I4A4424IA24A244A4IAA4AA4IA2IAA4AA4IAAIAAIIA4IAAIAAIIA2IAA
4A44IA4I2A4424IA24A244A4IAA4AA4IA2IAA4AA4IAAIAAIIA4IAAIAAIIA2IAA
4A44IA4I2A4424IA24AA44A4IAA4AA4IA2IAA4AA4IAAIAAIIA4IAAIAAIIA2IAA
4A44IA4I2A4A24IA24AA44A4IAA4AA4IA2IAA4AA4IAAIAAIIA4IAAIAAIIA2IAA
4A44IA4IAA4A24IA24AA44A4IAA4AA4IA2IAA4AA4IAAIAAIIA4IAAIAAIIA2IAA
4A44IA2IAA4A24IAA4AA44A4IAA4AA4IA2IAA4AA4IAAIAAIIA4IAAIAAIIA2IAA
4A24IA2IAA4AA4IAA4AA44A4IAA4AA4IA2IAA4AA4IAAIAAIIA4IAAIAAIIA2IAA
4AA4IA2IAA4AA4IAA4AA44A4IAA4AA4IA2IAA4AA4IAAIAAIIA4IAAIAAIIA2IAA
4AA4IA2IAA4AA4IAA4AA44A4IAA4AA4IA2IAA4AA4IAAIAAIIA4IIAIAAIIA2IAA
4AA4IA2IAA4AA4IAA4AA44A4IAA4IA4IA2IAA4AA4IAAIAAIIA4IIAIAAIIA2IAA
4AA4IA2IAA4AA4IAA4AA44A4IAA4IA4IA2IAA4AA4IIAIAAIIA4IIAIAAIIA2IAA
4AA4IA2IAA4AA4IAA4AA44A4IIA4IA4IA2IAA4AA4IIAIAAIIA4IIAIAAIIA2IAA
4AA4IA2IIA4AA4IAA4AA44A4IIA4IA4IA2IAA4AA4IIAIAAIIA4IIAIAAIIA2IAA
4AA4IA2IIA4AA4IAA4AA44A4IIA4IA4IA2IAA4AA4IIAIAAIIA4IIAIAAIII2IAA
4AA4IA2IIA4AA4IAA4AA44A4IIA4IA4IA2IAA4AA4IIAIAAIIA4IIIIAAIII2IAA
4AA4IA2IIA4AA4IAA4AA44A4IIA4IA4IA2IAA4AA4IIAIAIIIA4IIIIAAIII2IAA
4AA4IA2IIA4AA4IAA4AA44A4IIA4IA4IA2IAA4AI4IIAIAIIIA4IIIIAAIII2IAA
4AA4IA2IIA4AA4IAA4AA44A4IIA4IA4IA2IAA4AI4IIIIAIIIA4IIIIAAIII2IAA
4AA4IA2IIA4AA4IAA4AA44A4IIA4IA4II2IAA4AI4IIIIAIIIA4IIIIAAIII2IAA
4AA4IA2IIA4AA4IAA4AA44A4IIA4II4II2IAA4AI4IIIIAIIIA4IIIIAAIII2IAA
4AA4IA2IIA4AA4IAA4AI44A4IIA4II4II2IAA4AI4IIIIAIIIA4IIIIAAIII2IAA
4AA4IAIIIA4AA4IAA4AI44A4IIA4II4II2IAA4AI4IIIIAIIIA4IIIIAAIII2IAA
4AA4IAIIIA4AA4IAA4AI44A4IIA4II4II2IAA4AI4I4IIAIIIA4I2IIAAIII2IAA
4AA4IAIIIA4AA4IAA4AI44A4IIA4II4I42IAA4A44I4IIA4IIA4I2IIAAIIA2IAA
4AA4IAIIIA4AA4IAA4AI44A4IIA4II4I42IAA4A44I44IA4IIA4I22IAAIIA2IAA
4AA4IAIIIA4AA4IAA4AI44A4IIA4444I42IAA4A44I44IA4IIA4I22IAAIIA2IAA
4AA4IAIIIA4AA4IAA4AI44A4I4A4444I42IAA4A44I24IA4IIA4IA2IAAIIA2IAA
4AA4IAIIIA4AA4IAA4AI44A4I4A4444I42IAA4A24I24IA4IIA4IA2IAAIIA2IAA
4AA4IAIIIA4AA4IAA4AI44A4I4A4444I42IAA4A24I24IA2IIA4IA2IAAIIA2IAA
4AA4IAIIIA4AA4IAA4AI44A4I4A4444I42IAA4A24I22IA2IIA4IAAIAAIIA2IAA
4AA4IAIIIA4AA4IAA4A444A4I4A4444I42IAA4A24I22IA2IIA4IAAIAAIIA2IAA
4AA4IAIIIA4AA4IAA4A444A4I4A4444I22IAA4A24IA2IA2IIA4IAAIAAIIA2IAA
4AA4IAIIIA4AA4IAA4A444A4I4A4444I22IAA4A24IA2IAAIIA4IAAIAAIIA2IAA
4AA4IAIIIA4AA4IAA4A444A4I4A4244I22IAA4A24IA2IAAIIA4IAAIAAIIA2IAA
4AA4IAIIIA4AA4IAA4A444A4I4A4244I22IAA4A24IAAIAAIIA4IAAIAAIIA2IAA
4AA4IAII4A4AA4IAA4A444A4I2A4244I22IAA4A24IAAIAAIIA4IAAIAAIIA2IAA
4AA4IAII4A4AA4IAA4A444A4I2A4224I22IAA4AA4IAAIAAIIA4IAAIAAIIA2IAA
4AA4IA4I4A4AA4IAA4A444A4I2A4224IA2IAA4AA4IAAIAAIIA4IAAIAAIIA2IAA
4AA4IA4I4A4AA4IAA4A444A4I2A4A24IA2IAA4AA4IAAIAAIIA4IAAIAAIIA2IAA
4AA4IA4I4A4AA4IAA4A444A4IAA4A24IA2IAA4AA4IAAIAAIIA4IAAIAAIIA2IAA
4AA4IA4I4A4AA4IAA4A244A4IAA4AA4IA2IAA4AA4IAAIAAIIA4IAAIAAIIA2IAA
4AA4IA4I2A4AA4IAA4A244A4IAA4AA4IA2IAA4AA4IAAIAAIIA4IAAIAAIIA2IAA
4AA4IA4I2A4AA4IAA4AA44A4IAA4AA4IA2IAA4AA4IAAIAAIIA4IAAIAAIIA2IAA
4AA4IA4IAA4AA4IAA4AA44A4IAA4AA4IA2IAA4AA4IAAIAAIIA4IAAIAAIIA2IAA
4AA4IA2IAA4AA4IAA4AA44A4IAA4AA4IA2IAA4AA4IAAIAAIIA4IAAIAAIIA2IAA
4AA4IA2IAA4AA4IAA4AA44A4IAA4AA4IA2IAA4AA4IAAIAAIIA4IIAIAAIIA2IAA
4AA4IA2IAA4AA4IAA4AA44A4IAA4IA4IA2IAA4AA4IAAIAAIIA4IIAIAAIIA2IAA
4AA4IA2IAA4AA4IAA4AA44A4IAA4IA4IA2IAA4AA4IAAIAAIII4IIAIAAIIA2IAA
4AA4IA2IAA4AA4IAA4AA44A4IAA4IA4IA2IAA4AA4IIAIAAIII4IIAIAAIIA2IAA
4AA4IA2IAA4AA4IAA4AA44A4IAA4IA4IA2IIA4AA4IIAIAAIII4IIAIAAIIA2IAA
4AA4IA2IAA4AA4IAA4AA44A4IAA4IA4IA2III4AA4IIAIAAIII4IIAIAAIIA2IAA
4AA4IA2IAA4AA4IAA4AA44A4IIA4IA4IA2III4AA4IIAIAAIII4IIAIAAIIA2IAA
4AA4IA2IAA4AA4IAA4AA44A4III4IA4IA2III4AA4IIAIAAIII4IIAIAAIIA2IAA
4AA4IA2IAA4AA4IAA4IA44A4III4IA4IA2III4AA4IIAIAAIII4IIAIAAIIA2IAA
4AA4IA2IAA4AA4IAA4IA44A4III4IA4IA2III4AA4IIAIAIIII4IIAIAAIIA2IAA
4AI4IA2IAA4AA4IAA4IA44A4III4IA4IA2III4AA4IIAIAIIII4IIAIAAIIA2IAA
4AI4IA2IAA4AA4IAA4IA44A4III4IA4IA2III4AA4IIAIIIIII4IIAIAAIIA2IAA
4AI4IA2IAA4IA4IAA4IA44A4III4IA4IA2III4AA4IIAIIIIII4IIAIAAIIA2IAA
4AI4IA2IAA4IA4IAA4IA44A4III4IA4IA2III4AA4IIAIIIIII4IIIIAAIIA2IAA
4AI4IA2IAA4IA4IAA4IA44A4III4IA4IA2III4AA4IIIIIIIII4IIIIAAIIA2IAA
4AI4IA2IAA4II4IAA4IA44A4III4IA4IA2III4AA4IIIIIIIII4IIIIAAIIA2IAA
4AI4IA2IAA4II4IAA4IA44A4III4IA4II2III4AA4IIIIIIIII4IIIIAAIIA2IAA
4AI4IA2IAA4II4IAI4IA44A4III4IA4II2III4AA4IIIIIIIII4IIIIAAIIA2IAA
4AI4IA2IAA4II4IAI4IA44A4III44A4II2I444AA4I4IIIIII44I2IIAAIIA2IAA
4AI4IA2IAA4II4IAI4IA44A4I4I44A4I42I444AA4I4III4II24I2IIAAIIA2IAA
4AI4IA2IAA4II4IAI4IA44A4I4I44A4I42I444AA4I4II24II24I2IIAAIIA2IAA
4AI4IA2IAA4II4IAI4IA44A4I4I44A4I42I444AA4I44I24II24I22IAAIIA2IAA
4AI4IA2IAA4II4IAI44A44A4I4444A4I42I444AA4I24I24II24IA2IAAIIA2IAA
4AI4IA2IAA4II4IAI44A44A4I4444A4I42I444AA4I24I24IIA4IA2IAAIIA2IAA
4AI4IA2IAA4II4IAI44A44A4I4444A4I42I444AA4I24I22IIA4IA2IAAIIA2IAA
4AI4IA2IAA4II4IAI44A44A4I4444A4I42I444AA4I22I22IIA4IAAIAAIIA2IAA
4AI4IA2IAA44I4IAI44A44A4I4444A4I42I244AA4I22IA2IIA4IAAIAAIIA2IAA
4AI4IA2IAA44I4IA444A44A4I4444A4I22I244AA4IA2IA2IIA4IAAIAAIIA2IAA
4AI4IA2IAA4444IA444A44A4I4444A4I22I224AA4IA2IAAIIA4IAAIAAIIA2IAA
4AI44A2IAA4444IA444A44A4I4442A4I22I224AA4IA2IAAIIA4IAAIAAIIA2IAA
4AI44A2IAA4444IA444A44A4I2442A4I22IA24AA4IA2IAAIIA4IAAIAAIIA2IAA
4AI44A2IAA4444IA444A44A4I2442A4I22IA24AA4IAAIAAIIA4IAAIAAIIA2IAA
4AI44A2IAA4444IA444A44A4I2442A4IA2IA24AA4IAAIAAIIA4IAAIAAIIA2IAA
4A444A2IAA4444IA444A44A4I2242A4IA2IAA4AA4IAAIAAIIA4IAAIAAIIA2IAA
4A444A2IAA4444IA442A44A4I224AA4IA2IAA4AA4IAAIAAIIA4IAAIAAIIA2IAA
4A444A2IAA4444IA442A44A4IA24AA4IA2IAA4AA4IAAIAAIIA4IAAIAAIIA2IAA
4A444A2IAA4424IA442A44A4IA24AA4IA2IAA4AA4IAAIAAIIA4IAAIAAIIA2IAA
4A444A2IAA4424IA242A44A4IAA4AA4IA2IAA4AA4IAAIAAIIA4IAAIAAIIA2IAA
4A444A2IAA4424IA24AA44A4IAA4AA4IA2IAA4AA4IAAIAAIIA4IAAIAAIIA2IAA
4A444A2IAA4A24IA24AA44A4IAA4AA4IA2IAA4AA4IAAIAAIIA4IAAIAAIIA2IAA
4A444A2IAA4A24IAA4AA44A4IAA4AA4IA2IAA4AA4IAAIAAIIA4IAAIAAIIA2IAA
4A244A2IAA4AA4IAA4AA44A4IAA4AA4IA2IAA4AA4IAAIAAIIA4IAAIAAIIA2IAA
4AA44A2IAA4AA4IAA4AA44A4IAA4AA4IA2IAA4AA4IAAIAAIIA4IAAIAAIIA2IAA
4AA44A2IAA4AA4IAA4AA44A4IAA4AA4IA2IAA4AA4IAAIAAIIA4IIAIAAIIA2IAA
4AA44A2IAA4AA4IAA4AA44A4IAA4IA4IA2IAA4AA4IAAIAAIIA4IIAIAAIIA2IAA
4AA44A2IAA4AA4IAA4AA44A4IAA4IA4IA2IAA4AA4IIAIAAIIA4IIAIAAIIA2IAA
4AA44A2IAA4AA4IAA4AA44A4IAA4IA4IA2IAA4AA4IIAIAIIIA4IIAIAAIIA2IAA
4AA44A2IAA4AA4IAA4AA44A4IAI4IA4IA2IAA4AA4IIAIAIIIA4IIAIAAIIA2IAA
4AA44A2IAA4IA4IAA4AA44A4IAI4IA4IA2IAA4AA4IIAIAIIIA4IIAIAAIIA2IAA
4AA44A2IAA4IA4IAA4AA44A4IAI4IA4IA2IAA4AA4IIAIIIIIA4IIAIAAIIA2IAA
4AA44A2IAA4IA4IAA4AA44A4IAI4IA4IA2IAA4AA4IIIIIIIIA4IIAIAAIIA2IAA
4AA44A2IAA4IA4IAA4AA44I4IAI4IA4IA2IAA4AA4IIIIIIIIA4IIAIAAIIA2IAA
4AA44A2IAA4IA4IAA4AA44I4IAI4IA4IA2IAA4AA4IIIIIIIIA4IIIIAAIIA2IAA
4AA44A2IAA4IA4IAA4AA44I4IAI4IA4II2IAA4AA4IIIIIIIIA4IIIIAAIIA2IAA
4AA44A2IAA4IA4IAI4AA44I4IAI4IA4II2IAA4AA4IIIIIIIIA4IIIIAAIIA2IAA
4AA44A2IAA4IA4IAI4AA44I4IAI44A4II2IAA4AA4I4IIIIIIA4I2IIAAIIA2IAA
4AA44A2IAA4IA4IAI4AA44I4IAI44A4I42IAA4AA4I4III4IIA4I2IIAAIIA2IAA
4AA44A2IAA4IA4IAI4AA44I4IAI44A4I42IAA4AA4I4II24IIA4I2IIAAI4A2IAA
4AA44A2IAA4IA4IAI4AA44I4IAI44A4I42IAA4AA4I44I24IIA4I22IAAI4A2IAA
4AA44A2IAA4IA4IAI4AA44I4IAI44A4I42IAA4AA4I24I24IIA4IA2IAAI4A2IAA
4AA44A2IAA4IA4IAI4AA4444IAI44A4I42IAA4AA4I24I24IIA4IA2IAAI4A2IAA
4AA44A2IAA4IA4IAI4AA4444IAI44A4I42IAA4AA4I24I22IIA4IA2IAAI4A2IAA
4AA44A2IAA4IA4IAI4AA4444IA444A4I42IAA4AA4I22I22IIA4IAAIAAI4A2IAA
4AA44A2IAA44A4IAI4AA4444IA444A4I42IAA4AA4I22IA2I4A4IAAIAAI4A2IAA
4AA44A2IAA44A4IAI4AA4444IA444A4I22IAA4AA4IA2IA2I4A4IAAIAAI4A2IAA
4AA44A2IAA44A4IAI4AA4444IA444A4I22IAA4AA4IA2IAAI4A4IAAIAAI4A2IAA
4AA44A2IAA44A4IAI4AA4444IA442A4I22IAA4AA44A2IAAI4A4IAAIAAI4A2IAA
4AA44A2IAA44A4IA44AA4444IA442A4I22IAA4AA44AAIAAI4A4IAAIAAI4A2IAA
4AA44A2IAA44A4IA44AA4424IA442A4IA2IAA4AA44AAIAAI4A4IAAIAAI4A2IAA
4AA44A2IAA44A4IA44AA4424IA44AA44A2IAA4AA44AAIAAI4A4IAAIAAI4A2IAA
4AA44A2IAA44A4IA44AA4424IA24AA44A2IAA4AA44AAIAAI4A4IAAIAAI4A2IAA
4AA44A2IAA44A4IA44AA44A4IA24AA44A2IAA4AA44AAIAAI4A4IAAIAAI4A2IAA
4AA44A2IAA44A4IA24AA44A4IAA4AA44A2IAA4AA44AAIAAI4A4IAAIAAI4A2IAA
4AA44A2IAA4AA44A24AA44A4IAA4AA44A2IAA4AA44AAIAAI4A4IAAIAAI4A2IAA
4AA44A2IAA4AA44AA4AA44A4IAA4AA44A2IAA4AA44AAIAAI4A4IAAIAAI4A2IAA
4AA44A2IAA4AA44AA4AA44A4IAA4AA44A2IAA4AA44IAIAAI4A4IAAIAAI4A2IAA
4AA44A2IAA4AA44AA4AA44A4IAA4AA44A2IAI4AA44IAIAAI4A4IAAIAAI4A2IAA
4AA44A2IAA4AA44AA4IA44A4IAA4AA44A2IAI4AA44IAIAAI4A4IAAIAAI4A2IAA
4AA44A2IAI4AA44AA4IA44A4IAA4AA44A2IAI4AA44IAIAAI4A4IAAIAAI4A2IAA
4IA44A2IAI4AA44AA4IA44A4IAA4AA44A2IAI4AA44IAIAAI4A4IAAIAAI4A2IAA
4IA44A2IAI4AA44AA4IA44A4IAA4AA44A2IAI4AA44IAIAII4A4IAAIAAI4A2IAA
4IA44A2IAI4AA44AA4IA44I4IAA4AA44A2IAI4AA44IAIAII4A4IAAIAAI4A2IAA
4IA44A2IAI4AA44AA4IA44I4IAA4AI44A2IAI4AA44IAIAII4A4IAAIAAI4A2IAA
4IA44A2IAI4AA44AA4IA44I4IAA4AI44A2IA44AA444AIAII4A4IAAIAAI4A2IAA
4IA44A2IAI4AA44AA4IA44I4IAA4AI44A2IA44AA444AIA4I4A4IAAIAAI4A2IAA
4IA44A2IAI4AA44AA4IA44I4IAA4A444A2IA44AA444AIA4I4A4IAAIAAI4A2IAA
4IA44A2IAI4AA44AA44A44I4IAA4A444A2IA44AA442AIA4I4A4IAAIAAI4A2IAA
4IA44A2IAI4AA44AA44A4444IAA4A444A2IA44AA442AIA4I4A4IAAIAAI4A2IAA
4IA44A2IAI4AA44AA44A4444IAA4A444A2IA44AA442AIA2I4A4IAAIAAI4A2IAA
4IA44A2IAI4AA44AA44A4444IAA4A444A2IA44AA44AAIA2I4A4IAAIAAI4A2IAA
4IA44A2IAI4AA44AA44A4444IAA4A444A2IA24AA44AAIAAI4A4IAAIAAI4A2IAA
4IA44A2IA44AA44AA44A4444IAA4A444A2IA24AA44AAIAAI4A4IAAIAAI4A2IAA
44A44A2IA44AA44AA44A4444IAA4A444A2IA24AA44AAIAAI4A4IAAIAAI4A2IAA
44A44A2IA44AA44AA44A4424IAA4A444A2IA24AA44AAIAAI4A4IAAIAAI4A2IAA
44A44A2IA44AA44AA44A4424IAA4A244A2IA24AA44AAIAAI4A4IAAIAAI4A2IAA
44A44A2IA44AA44AA42A4424IAA4A244A2IA24AA44AAIAAI4A4IAAIAAI4A2IAA
44A44A2IA44AA44AA42A4424IAA4A244A2IAA4AA44AAIAAI4A4IAAIAAI4A2IAA
44A44A2IA44AA44AA42A4424IAA4AA44A2IAA4AA44AAIAAI4A4IAAIAAI4A2IAA
44A44A2IA44AA44AA42A44A4IAA4AA44A2IAA4AA44AAIAAI4A4IAAIAAI4A2IAA
44A44A2IA44AA44AA4AA44A4IAA4AA44A2IAA4AA44AAIAAI4A4IAAIAAI4A2IAA
44A44A2IA24AA44AA4AA44A4IAA4AA44A2IAA4AA44AAIAAI4A4IAAIAAI4A2IAA
42A44A2IA24AA44AA4AA44A4IAA4AA44A2IAA4AA44AAIAAI4A4IAAIAAI4A2IAA
42A44A2IAA4AA44AA4AA44A4IAA4AA44A2IAA4AA44AAIAAI4A4IAAIAAI4A2IAA
4AA44A2IAA4AA44AA4AA44A4IAA4AA44A2IAA4AA44AAIAAI4A4IAAIAAI4A2IAA
4AA44A2IAA4AA44AA4AA44A4IAA4AA44A2IAA4AA44AAIAAI4A4IIAIAAI4A2IAA
4AA44A2IAA4AA44AA4AA44A4IAA4AA44A2IAA4AA44IAIAAI4A4IIAIAAI4A2IAA
4AA44A2IAA4AA44AA4AA44A4IAA4AA44A2IAI4AA44IAIAAI4A4IIAIAAI4A2IAA
4AA44A2IAA4AA44AA4AA44A4IIA4AA44A2IAI4AA44IAIAAI4A4IIAIAAI4A2IAA
4AA44A2IAA4AA44AA4IA44A4IIA4AA44A2IAI4AA44IAIAAI4A4IIAIAAI4A2IAA
4AA44A2IAA4AA44IA4IA44A4IIA4AA44A2IAI4AA44IAIAAI4A4IIAIAAI4A2IAA
4AA44A2IIA4AA44IA4IA44A4IIA4AA44A2IAI4AA44IAIAAI4A4IIAIAAI4A2IAA
4AA44A2IIA4AA44IA4IA44A4IIA4AA44A2IAI4AA444AIAAI4A4I2AIAAI4A2IAA
4AA44A2IIA4AA44IA4IA44A4IIA4AA44A2IA44AA444AIAAI4A4I2AIAAI4A2IAA
4AA44A2IIA4AA44IA4IA44A4IIA4AA44A2IA44AA442AIAAI4A4IAAIAAI4A2IAA
4AA44A2IIA4AA44IA4IA44A4I4A4AA44A2IA44AA442AIAAI4A4IAAIAAI4A2IAA
4AA44A2IIA4AA44IA4IA44A4I4A4AA44A2IA44AA44AAIAAI4A4IAAIAAI4A2IAA
4AA44A2IIA4AA44IA4IA44A4I4A4AA44A2IA24AA44AAIAAI4A4IAAIAAI4A2IAA
4AA44A2IIA4AA444A44A44A4I4A4AA44A2IA24AA44AAIAAI4A4IAAIAAI4A2IAA
4AA44A2IIA4AA444A44A44A4I2A4AA44A2IA24AA44AAIAAI4A4IAAIAAI4A2IAA
4AA44A2IIA4AA444A44A44A4I2A4AA44A2IAA4AA44AAIAAI4A4IAAIAAI4A2IAA
4AA44A2I4A4AA444A42A44A4I2A4AA44A2IAA4AA44AAIAAI4A4IAAIAAI4A2IAA
4AA44A2I4A4AA442A42A44A4IAA4AA44A2IAA4AA44AAIAAI4A4IAAIAAI4A2IAA
4AA44A2I2A4AA442A4AA44A4IAA4AA44A2IAA4AA44AAIAAI4A4IAAIAAI4A2IAA
4AA44A2I2A4AA44AA4AA44A4IAA4AA44A2IAA4AA44AAIAAI4A4IAAIAAI4A2IAA
4AA44A2IAA4AA44AA4AA44A4IAA4AA44A2IAA4AA44AAIAAI4A4IAAIAAI4A2IAA
4AA44A2IAA4IA44AA4AA44A4IAA4AA44A2IAA4AA44AAIAAI4A4IAAIAAI4A2IAA
4AA44A2IAA4IA44AI4AA44A4IAA4AA44A2IAA4AA44AAIAAI4A4IAAIAAI4A2IAA
4AA44A2IAA44A44AI4AA44A4IAA4AA44A2IAA4AA44AAIAAI4A4IAAIAAI4A2IAA
4AA44A2IAA44A44A44AA44A4IAA4AA44A2IAA4AA44AAIAAI4A4IAAIAAI4A2IAA
4AA44A2IAA44A44A24AA44A4IAA4AA44A2IAA4AA44AAIAAI4A4IAAIAAI4A2IAA
4AA44A2IAA4AA44A24AA44A4IAA4AA44A2IAA4AA44AAIAAI4A4IAAIAAI4A2IAA
4AA44A2IAA4AA44AA4AA44A4IAA4AA44A2IAA4AA44AAIAAI4A4IAAIAAI4A2IAA
4AA44I2IAA4AA44AA4AA44A4IAA4AA44A2IAA4AA44AAIAAI4A4IAAIAAI4A2IAA
4IA44I2IAA4AA44AA4AA44A4IAA4AA44A2IAA4AA44AAIAAI4A4IAAIAAI4A2IAA
4IA44I2IAA4AA44AA4AA44A4IAA4AA44A2IAA4AI44AAIAAI4A4IAAIAAI4A2IAA
4IA44I2IAA4AA44AA4AA44A4IAI4AA44A2IAA4AI44AAIAAI4A4IAAIAAI4A2IAA
4IA44I2IAA4AA44AA4AA44A4IAI4AA44A2IAA4AI44AAIIAI4A4IAAIAAI4A2IAA
4IA44I2IAA4AA44AA4AA44I4IAI4AA44A2IAA4AI44AAIIAI4A4IAAIAAI4A2IAA
4IA44I2IAA4AA44AA4AA44I4IAI4AA44I2IAA4AI44AAIIAI4A4IAAIAAI4A2IAA
4IA44I2IAA4AA44AA4AA44I4IAI4AA44I2IAA4AI44AAI2AI4A4IAAIAAI4A2IAA
4IA44I2IAA4AA44AA4AA44I4IAI4AA44I2IAA4A444AAI2AI4A4IAAIAAI4A2IAA
4IA44I2IAA4AA44AA4AA44I4IAI4AA44I2IAA4A244AAI2AI4A4IAAIAAI4A2IAA
4IA44I2IAA4AA44AA4AA44I4IAI4AA4442IAA4A244AAIAAI4A4IAAIAAI4A2IAA
4IA44I2IAA4AA44AA4AA44I4IAI4AA4422IAA4A244AAIAAI4A4IAAIAAI4A2IAA
4IA44I2IAA4AA44AA4AA4444IAI4AA4422IAA4A244AAIAAI4A4IAAIAAI4A2IAA
4IA44I2IAA4AA44AA4AA4444IA44AA4422IAA4AA44AAIAAI4A4IAAIAAI4A2IAA
4IA44I2IAA4AA44AA4AA4444IA24AA4422IAA4AA44AAIAAI4A4IAAIAAI4A2IAA
4IA44I2IAA4AA44AA4AA4424IA24AA44A2IAA4AA44AAIAAI4A4IAAIAAI4A2IAA
4IA44I2IAA4AA44AA4AA44A4IA24AA44A2IAA4AA44AAIAAI4A4IAAIAAI4A2IAA
4IA44I2IAA4AA44AA4AA44A4IAA4AA44A2IAA4AA44AAIAAI4A4IAAIAAI4A2IAA
4IA4442IAA4AA44AA4AA44A4IAA4AA44A2IAA4AA44AAIAAI4A4IAAIAAI4A2IAA
4IA4422IAA4AA44AA4AA44A4IAA4AA44A2IAA4AA44AAIAAI4A4IAAIAAI4A2IAA
42A4422IAA4AA44AA4AA44A4IAA4AA44A2IAA4AA44AAIAAI4A4IAAIAAI4A2IAA
42A44A2IAA4AA44AA4AA44A4IAA4AA44A2IAA4AA44AAIAAI4A4IAAIAAI4A2IAA
4AA44A2IAA4AA44AA4AA44A4IAA4AA44A2IAA4AA44AAIAAI4A4IAAIAAI4A2IAA
4AA44A2IAA4AA44AA4AA44A4IAA4AA44A2IIA4AA44AAIAAI4A4IAAIAAI4A2IAA
4AA44A2IAA4AA44AA4AA44A4IAA4AA44A2III4AA44AAIAAI4A4IAAIAAI4A2IAA
4AA44A2IAA4AA44AA4IA44A4IAA4AA44A2III4AA44AAIAAI4A4IAAIAAI4A2IAA
4AA44A2IAA4AA44IA4IA44A4IAA4AA44A2III4AA44AAIAAI4A4IAAIAAI4A2IAA
4AA44A2IAA4AA44IA4IA44A4IAA4AA44A2I4I4AA44AAIAAI4A4IAAIAAI4A2IAA
4AA44A2IAA4AA44IA4IA44A4IAA4AA44A2I4I4AA44AAIAAI4A2IAAIAAI4A2IAA
4AA44A2IAA4AA44IA4IA44A4IAA4AA44A2I444AA44AAIAAI4A2IAAIAAI4A2IAA
4AA44A2IAA4AA44IA4IA44A4IAA4AA44A2I424AA44AAIAAI4A2IAAIAAI4A2IAA
4AA44A2IAA4AA44IA4IA44A4IAA4AA44A2I424AA24AAIAAI4A2IAAIAAI4A2IAA
4AA44A2IAA4AA44IA4IA44A4IAA4AA44A2I224AA24AAIAAI4A2IAAIAAI4A2IAA
4AA44A2IAA4AA44IA44A44A4IAA4AA44A2I224AA24AAIAAI4A2IAAIAAI4A2IAA
4AA44A2IAA4AA44IA44A44A4IAA4AA24A2I224AA24AAIAAI4A2IAAIAAI4A2IAA
4AA44A2IAA4AA444A44A44A4IAA4AA24A2IA24AA24AAIAAI4A2IAAIAAI4A2IAA
4AA44A2IAA4AA444A44A44A2IAA4AA24A2IAA4AA24AAIAAI4A2IAAIAAI4A2IAA
4AA44A2IAA4AA442A42A44A2IAA4AA24A2IAA4AA24AAIAAI4A2IAAIAAI4A2IAA
4AA44A2IAA4AA242A42A44A2IAA4AA24A2IAA4AA24AAIAAI4A2IAAIAAI4A2IAA
4AA44A2IAA4AA242A4AA44A2IAA4AA24A2IAA4AA24AAIAAI4A2IAAIAAI4A2IAA
4AA44A2IAA4AA24AA4AA44A2IAA4AA24A2IAA4AA24AAIAAI4A2IAAIAAI4A2IAA
4AA24A2IAA4AA24AA4AA44A2IAA4AA24A2IAA4AA24AAIAAI4A2IAAIAAI4A2IAA
4AA24A2IIA4AA24AA4AA44A2IAA4AA24A2IAA4AA24AAIAAI4A2IAAIAAI4A2IAA
4AA24A2IIA4AAI4AA4AA44A2IAA4AA24A2IAA4AA24AAIAAI4A2IAAIAAI4A2IAA
4AA24A2IIA4AAI4AA4AA44A2IAA4AA24I2IAA4AA24AAIAAI4A2IAAIAAI4A2IAA
4AA24A2IIA4AAI4AA4AA44A2IAA4AA2442IAA4AA24AAIAAI4A2IAAIAAI4A2IAA
4AA24A2IIA4AAI4AA4AA44A2IAA4AA24A2IAA4AA24AAIAAI4A2IAAIAAI4A2IAA
4AA24A2IIA4AA44AA4AA44A2IAA4AA24A2IAA4AA24AAIAAI4A2IAAIAAI4A2IAA
4AA24A2I4A4AA44AA4AA44A2IAA4AA24A2IAA4AA24AAIAAI4A2IAAIAAI4A2IAA
4AA24A2IAA4AA44AA4AA44A2IAA4AA24A2IAA4AA24AAIAAI4A2IAAIAAI4A2IAA
4AA24A2IAA4AA44AA4AA44A2IAA4AA24A2IAA4AA24AAIAAI4A24AAIAAI4A2IAA
4AA24A2IAA4AA44AA4AA44A2IAA4AA24A2IAA4AA24AAIAAI4A24AAIAA44A24AA
4AA24A2IAA4AA44AA4AA44A2IAA4AA24A2IAA4AA24AAIAAI4A24AA4AA44A24AA
4AA24A2IAA4AA44AA4AA44A2IAA4AA24A2IAA4AA24AAIAA44A24AA4AA44A24AA
4AA24A2IAA4AA44AA4AA44A2IAA4AA24A2IAA4AA24AA4AA44A24AA4AA44A24AA
4AA24A2IAA4AA44AA4AA44A24AA4AA24A2IAA4AA24AA4AA44A24AA4AA44A24AA
4AA24A2IAA4AA44AA4AA44A24AA4AA24A24AA4AA24AA4AA44A24AA4AA44A24AA
4AA24A2IAA4AA24AA4AA44A24AA4AA24A24AA4AA24AA4AA44A24AA4AA44A24AA
4AA24A2IAA4AA24AA4AA44A24AA4AA24A24AA4AA24AA4AA44A24AA4AA42A24AA
4AA24A2IAA4AA24AA4AA44A24AA4AA24A24AA4AA24AA4AA44A24AA4AA42A22AA
4AA24A2IAA4AA24AA4AA44A24AA4AA24A24AA4AA24AA4AA42A24AA2AA42A22AA
4AA24A2IAA4AA24AA4AA44A24AA4AA24A24AA4AA24AA4AA42A22AA2AA42A22AA
4AA24A2IAA4AA24AA4AA44A24AA4AA24A24AA4AA22AA4AA22A22AA2AA42A22AA
4AA24A2IAA4AA24AA4AA44A24AA4AA24A24AA4AA22AA2AA22A22AA2AA42A22AA
4AA24A2IAA4AA24AA4AA44A24AA4AA22A24AA2AA22AA2AA22A22AA2AA42A22AA
4AA24A2IAA4AA24AA4AA44A24AA4AA22A22AA2AA22AA2AA22A22AA2AA42A22AA
4AA24A2IAA4AA24AA4AA42A24AA2AA22A22AA2AA22AA2AA22A22AA2AA42A22AA
4AA24A2IAA4AA24AA4AA42A22AA2AA22A22AA2AA22AA2AA22A22AA2AA42A22AA
4AA24A2IAA4AA22AA4AA22A22AA2AA22A22AA2AA22AA2AA22A22AA2AA42A22AA
4AA24A2IAA4AA22AA2AA22A22AA2AA22A22AA2AA22AA2AA22A22AA2AA42A22AA
4AA22A2IAA2AA22AA2AA22A22AA2AA22A22AA2AA22AA2AA22A22AA2AA42A22AA
4AA22A2IAA2AA22AA2AA22A22AA2AA22A22AA2AA22AA2AA22A22AA2AA42A22AI
4AA22A2IAA2AA22AA2AA22A22AA2AA22A22AI2AA22AA2AA22A22AA2AA42A22AI
4AA22A2IAA2AA22AA2AA22A22AA2AA22A22AI2AA22AA2AA22A22AA2AI42A22AI
4AA22A2IAA2AA22AA2AA22A22AA2AA22A22AI2AA22AA2AA22A22AA2AI42A22II
4AA22A2IAA2AA22AA2AA22A22AA2AA22A22AI2AA22AA2AA22A22AA2AI42I22II
4AA22A2IAA2AA22AA2AA22A22AA2AA22A22AI2AA22AA2AA22A22IA2AI42I22II
4AA22A2IAA2AA22AA2AA22A22AA2AA22A22AI2AA22AA2IA22A22IA2AI42I22II
4AA22A2IAA2AA22AA2AA22A22AA2AA22I22AI2AA22AA2IA22A22IA2AI42I22II
4AA22A2IAA2AA22AA2IA22A22AA2AA22I22AI2AA22AA2IA22A22IA2AI42I22II
4AA22A2IAA2AA22AA2IA22A22AA2AA22I22AIIAA22AA2IA22A22IA2AI42I22II
4AA2IA2IAA2AA22AA2IA22A22AA2AA22I22AIIAA22AA2IA22A22IA2AI42I22II
4AA2IA2IAA2AA22AA2IA22A22AA2AA22I22AIIAA22AA24A22A224A2AI42I22AI
4AA2IA2IAA2AA22AA2IA22A22AA2AA22I22AIIAA22AA24A22A224A2AI42A22AI
4AA2IA2IAA2AA22AA2IA22A22AA2AA22I22AIIAA22AA24A22A224A2A442A22AA
4AA2IA2IAA2AA22AA2IA22A22AA2AA22I22AIIAA22AA24A22A22AA2A442A22AA
4AA2IA2IAA2AA22AA2IA22A22AA2AA22I22AIIAA22AA24A22A22AA2AA42A22AA
4AA2IA2IAA2AA22AA2IA22A22AA2AA22422AIIAA22AA24A22A22AA2AA42A22AA
4AA2IA2IAA2AA22AA2IA22A22AA2AA22422A4IAA22AA24A22A22AA2AA42A22AA
4AA2IA2IAA2AA22AA2IA22A22AA2AA22422A4IAA22AA2AA22A22AA2AA42A22AA
4AA2IA2IAA2AA22AA24A22A22AA2AA22422A4IAA22AA2AA22A22AA2AA42A22AA
4AA2IA2IAA2AA22AA24A22A22AA2AA22A22A4IAA22AA2AA22A22AA2AA42A22AA
4AA2IA2IAA2AA22AA24A22A22AA2AA22A22AAIAA22AA2AA22A22AA2AA42A22AA
4AA2IA2IAA2AA22AA2AA22A22AA2AA22A22AAIAA22AA2AA22A22AA2AA42A22AA
4AA24A2IAA2AA22AA2AA22A22AA2AA22A22AAIAA22AA2AA22A22AA2AA42A22AA
4AA24A2IAA2AA22AA2AA22A22AA2AA22A22AA4AA22AA2AA22A22AA2AA42A22AA
4AA24A2IAA2AA22AA2AA22A22AA2AA22A22AA4AA22AA2AA22A22AA2AA22A22AA
4AA24A2IAA2AA22AA2AA22A22AA2AA22A22AA2AA22AA2AA22A22AA2AA22A22AA
4AA24A2IAA2AA22AA2AA22A22AA2AA22A22AA2AA22AA2AA22A22AA2AA22A22IA
4AA24A2IAA2AA22AA2AA22A22AA2AA22A22AA2AA22AA2AA22A22IA2AA22A22IA
4AA24A2IIA2AA22AA2AA22A22AA2AA22A22AA2AA22AA2AA22A22IA2AA22A22IA
4AA24A2IIA2AA22AA2AA22A22AA2AA22A22AA2AA22AA2AA22A22IA2AAI2A22IA
4AA24A2IIA2AA22AA2AA22A22AA2AA22A22AA2AA22AA2AA22A22IA2AAI2A22II
4AA24A2IIA2AA22AA2AA22A22AA2AA22A22AA2AA22AA2AA22A224A2AAI2A22AI
4AA24A2IIA2AA22AA2AA22A22AA2AA22A22AA2AA22AA2AA22A224A2AAI2A22AA
4AA24A2IIA2AA22AA2AA22A22AA2AA22A22AA2AA22AA2AA22A22AA2AAI2A22AA
4AA24A2I4A2AA22AA2AA22A22AA2AA22A22AA2AA22AA2AA22A22AA2AAI2A22AA
4AA24A2IAA2AA22AA2AA22A22AA2AA22A22AA2AA22AA2AA22A22AA2AAI2A22AA
4AA24A2IAA2AA22AA2AA22A22AA2AA22A22AA2AA22AA2AA22A22AA2AA42A22AA
4AA24A2IAA2AA22AA2AA22A22AA2AA22A22AA2AA22AA2AA22A22AA2AA22A22AA
4AA24A22AA2AA22AA2AA22A22AA2AA22A22AA2AA22AA2AA22A22AA2AA22A22AA
4AA22A22AA2AA22AA2AA22A22AA2AA22A22AA2AA22AA2AA22A22AA2AA22A22AA
4AA22A22AA2AA22AA2AA22A22AA2AA22A22AA2AA22AA2AA22A22AA2AA22A22AI
4AA22A22AA2AA22AA2AA22A22AA2AA22A22AA2AA22AA2AA22A22AA2AA22A22AA
4AA22A22AA2AA22AA2AA22A22AA2AA22A22AA2AA22AA2AA22A22AA2AA22I22AA
4AA22A22AA2AA22AA2AA22A22AA2AA22A22AA2AA22AA2AI22A22AA2AA22I22AA
4AA22A22AA2AA22AA2AA22A22AA2AA22A22AA2AA22AA2AI22A22AA2AA22A22AA
4AA22A22AA2AA22AA2AA22A22AA2AA22A22AA2AA22AA2AA22A22AA2AA22A22AA
[MLOP] Prefetch Degree Mean: 4.95888
[MLOP] Prefetch Degree SD: 1.93304
[MLOP] Max Score Left Mean (%): 51.68000
[MLOP] Max Score Left SD (%): 7.76255
[MLOP] Max Score Right Mean (%): 81.28112
[MLOP] Max Score Right SD (%): 6.92481

Channel_0_RQ_row_buffer_hit 1400055
Channel_0_RQ_row_buffer_miss 764776
Channel_0_WQ_row_buffer_hit 85656
Channel_0_WQ_row_buffer_miss 96559
Channel_0_WQ_full 0
Channel_0_dbus_congested 381819

avg_congested_cycle 9

DRAM_bw_pochs 936511
DRAM_bw_level_0 575495
DRAM_bw_level_1 334160
DRAM_bw_level_2 25163
DRAM_bw_level_3 1693
