
*** ChampSim Multicore Out-of-Order Simulator ***

Warmup Instructions: 1000000
Prefetch Warmup Instructions: 10000000
Simulation Instructions: 300000000
Number of CPUs: 1
LLC sets: 2048
LLC ways: 16
Off-chip DRAM Size: 4096 MB Channels: 1 Width: 64-bit Data Rate: 3200 MT/s

CPU 0 runs /root/autodl-tmp/bfs-10.trace.gz
Read seed: 97
CPU 0 LLC from_file prefetcher

Warmup complete CPU 0 instructions: 1000002 cycles: 297582 (Simulation time: 0 hr 0 min 1 sec) 

